(1YET) [A] GDM275
XX    ILIB11222310123D

 82 83  0  0  1  0              1 V2000
   37.9680  -44.7170   63.2480 O   0  0  0  0  0
   37.9700  -43.6720   62.3560 C   0  0  0  0  0
   38.9370  -43.2560   61.7630 O   0  0  0  0  0
   36.7290  -43.1860   62.2470 N   0  0  0  0  0
   35.9771  -43.5963   62.7822 H   0  0  0  0  0
   36.5435  -42.4086   61.6295 H   0  0  0  0  0
   39.1110  -45.5010   63.1470 C   0  0  2  0  0
   38.7090  -46.9950   63.5290 C   0  0  1  0  0
   37.5890  -47.3870   62.6380 O   0  0  0  0  0
   37.8540  -48.5360   61.7580 C   0  0  0  0  0
   38.5603  -48.2639   61.0303 H   0  0  0  0  0
   38.2285  -49.3344   62.3280 H   0  0  0  0  0
   36.9623  -48.8297   61.2877 H   0  0  0  0  0
   39.8560  -47.9390   63.4440 C   0  0  0  0  0
   40.2930  -48.7990   64.3870 C   0  0  0  0  0
   39.7130  -48.9800   65.7140 C   0  0  0  0  0
   39.8780  -50.0730   66.5040 C   0  0  0  0  0
   39.2170  -50.1180   67.8480 C   0  0  0  0  0
   38.4350  -50.9890   68.1470 O   0  0  0  0  0
   39.5890  -49.1610   68.8170 N   0  0  0  0  0
   40.3710  -48.0090   68.7820 C   0  0  0  0  0
   41.7830  -48.2910   68.3730 C   0  0  0  0  0
   42.1120  -49.4480   68.1200 O   0  0  0  0  0
   43.1033  -49.4699   67.8414 H   0  0  0  0  0
   42.7820  -47.1900   68.2720 C   0  0  0  0  0
   42.3590  -45.9580   68.5760 C   0  0  0  0  0
   43.2450  -44.8190   68.5200 O   0  0  0  0  0
   44.6220  -44.8250   68.9240 C   0  0  0  0  0
   45.2039  -45.2791   68.1772 H   0  0  0  0  0
   44.9482  -43.8377   69.0700 H   0  0  0  0  0
   44.7214  -45.3626   69.8204 H   0  0  0  0  0
   40.9730  -45.6670   68.9870 C   0  0  0  0  0
   40.6420  -44.5160   69.2530 O   0  0  0  0  0
   40.8961  -44.3023   70.2280 H   0  0  0  0  0
   40.0010  -46.7620   69.0660 C   0  0  0  0  0
   39.0090  -46.5641   69.3474 H   0  0  0  0  0
   44.1620  -47.5820   67.8310 C   0  0  0  0  0
   44.3630  -47.4320   66.2830 C   0  0  2  0  0
   44.1980  -45.9760   65.7870 C   0  0  0  0  0
   44.1430  -45.7890   64.2740 C   0  0  2  0  0
   45.4050  -46.2650   63.7580 O   0  0  0  0  0
   45.4000  -46.4540   62.3080 C   0  0  0  0  0
   45.1865  -45.5403   61.8367 H   0  0  0  0  0
   44.6676  -47.1606   62.0497 H   0  0  0  0  0
   46.3423  -46.7968   61.9965 H   0  0  0  0  0
   43.9320  -44.3370   63.8430 C   0  0  2  0  0
   44.9430  -43.4780   64.4210 O   0  0  0  0  0
   45.7820  -43.4850   63.8235 H   0  0  0  0  0
   42.5670  -43.7870   64.2880 C   0  0  2  0  0
   41.4060  -44.4320   63.5920 C   0  0  0  0  0
   40.2740  -44.8800   64.1120 C   0  0  0  0  0
   39.9400  -44.8150   65.6040 C   0  0  0  0  0
   39.3295  -45.6294   65.8618 H   0  0  0  0  0
   40.8278  -44.8523   66.1634 H   0  0  0  0  0
   39.4335  -43.9187   65.8106 H   0  0  0  0  0
   41.5758  -44.5090   62.5587 H   0  0  0  0  0
   42.4790  -42.2760   63.9780 C   0  0  0  0  0
   41.4804  -41.9606   64.0547 H   0  0  0  0  0
   43.0681  -41.7430   64.6645 H   0  0  0  0  0
   42.8286  -42.0976   63.0041 H   0  0  0  0  0
   42.4441  -43.9474   65.3184 H   0  0  0  0  0
   43.9844  -44.2836   62.7957 H   0  0  0  0  0
   43.3640  -46.3832   63.8964 H   0  0  0  0  0
   45.0130  -45.4406   66.1764 H   0  0  0  0  0
   43.3082  -45.6202   66.2162 H   0  0  0  0  0
   43.4520  -48.3420   65.5110 C   0  0  0  0  0
   43.7886  -49.3325   65.6008 H   0  0  0  0  0
   42.4769  -48.2677   65.8934 H   0  0  0  0  0
   43.4534  -48.0622   64.4990 H   0  0  0  0  0
   45.3294  -47.7725   66.0537 H   0  0  0  0  0
   44.8692  -46.9709   68.3095 H   0  0  0  0  0
   44.3384  -48.5857   68.0841 H   0  0  0  0  0
   39.2629  -49.2527   69.7685 H   0  0  0  0  0
   40.6640  -51.2890   66.1240 C   0  0  0  0  0
   40.7153  -51.9429   66.9439 H   0  0  0  0  0
   41.6346  -51.0044   65.8420 H   0  0  0  0  0
   40.1934  -51.7726   65.3195 H   0  0  0  0  0
   39.1269  -48.1750   66.0472 H   0  0  0  0  0
   41.1220  -49.4137   64.1933 H   0  0  0  0  0
   40.4330  -47.9865   62.5681 H   0  0  0  0  0
   38.3958  -47.0497   64.5297 H   0  0  0  0  0
   39.4768  -45.4614   62.1636 H   0  0  0  0  0
  1  2  1  0  0  0
  1  7  1  0  0  0
  2  3  2  0  0  0
  2  4  1  0  0  0
  4  5  1  0  0  0
  4  6  1  0  0  0
  7  8  1  0  0  0
  7 51  1  0  0  0
  7 82  1  0  0  0
  8  9  1  0  0  0
  8 14  1  0  0  0
  8 81  1  0  0  0
  9 10  1  0  0  0
 10 11  1  0  0  0
 10 12  1  0  0  0
 10 13  1  0  0  0
 14 15  2  0  0  0
 14 80  1  0  0  0
 15 16  1  0  0  0
 15 79  1  0  0  0
 16 17  2  0  0  0
 16 78  1  0  0  0
 17 18  1  0  0  0
 17 74  1  0  0  0
 18 19  2  0  0  0
 18 20  1  0  0  0
 20 21  1  0  0  0
 20 73  1  0  0  0
 21 22  1  0  0  0
 21 35  2  0  0  0
 22 23  1  0  0  0
 22 25  2  0  0  0
 23 24  1  0  0  0
 25 26  1  0  0  0
 25 37  1  0  0  0
 26 27  1  0  0  0
 26 32  2  0  0  0
 27 28  1  0  0  0
 28 29  1  0  0  0
 28 30  1  0  0  0
 28 31  1  0  0  0
 32 33  1  0  0  0
 32 35  1  0  0  0
 33 34  1  0  0  0
 35 36  1  0  0  0
 37 38  1  0  0  0
 37 71  1  0  0  0
 37 72  1  0  0  0
 38 39  1  0  0  0
 38 66  1  0  0  0
 38 70  1  0  0  0
 39 40  1  0  0  0
 39 64  1  0  0  0
 39 65  1  0  0  0
 40 41  1  0  0  0
 40 46  1  0  0  0
 40 63  1  0  0  0
 41 42  1  0  0  0
 42 43  1  0  0  0
 42 44  1  0  0  0
 42 45  1  0  0  0
 46 47  1  0  0  0
 46 49  1  0  0  0
 46 62  1  0  0  0
 47 48  1  0  0  0
 49 50  1  0  0  0
 49 57  1  0  0  0
 49 61  1  0  0  0
 50 51  2  0  0  0
 50 56  1  0  0  0
 51 52  1  0  0  0
 52 53  1  0  0  0
 52 54  1  0  0  0
 52 55  1  0  0  0
 57 58  1  0  0  0
 57 59  1  0  0  0
 57 60  1  0  0  0
 66 67  1  0  0  0
 66 68  1  0  0  0
 66 69  1  0  0  0
 74 75  1  0  0  0
 74 76  1  0  0  0
 74 77  1  0  0  0
M  END
> <CanonicalPdbName>
1YET-GDM_275_A

$$$$
