9
XX    ILIB11212306383D

 67 67  0  0  1  0              1 V2000
   39.4057  -44.2818   63.0052 C   0  0  0  0  0
   39.4631  -44.0277   61.6745 O   0  0  0  0  0
   40.1808  -43.3974   61.4542 H   0  0  0  0  0
   40.1753  -43.7922   63.8212 O   0  0  0  0  0
   38.3232  -45.2677   63.3509 C   0  0  0  0  0
   38.7298  -46.0435   64.5659 C   0  0  0  0  0
   38.8891  -47.3734   64.6350 C   0  0  0  0  0
   39.2967  -48.0242   65.9145 C   0  0  0  0  0
   39.4931  -47.3451   66.9237 O   0  0  0  0  0
   39.4932  -49.5273   65.9615 C   0  0  0  0  0
   38.5992  -50.0779   66.9102 O   0  0  0  0  0
   38.8209  -49.7093   67.7833 H   0  0  0  0  0
   40.9018  -49.9562   66.3289 C   0  0  0  0  0
   42.0324  -49.5077   65.4233 C   0  0  0  0  0
   42.2364  -50.5666   64.3679 C   0  0  0  0  0
   42.1557  -50.4949   63.0398 C   0  0  0  0  0
   41.8065  -49.2398   62.3107 C   0  0  0  0  0
   42.6915  -48.0184   62.4655 C   0  0  0  0  0
   41.8811  -46.8102   62.3094 N   0  0  0  0  0
   41.6226  -46.6925   61.3304 H   0  0  0  0  0
   42.4437  -45.9928   62.5418 H   0  0  0  0  0
   43.8893  -48.0799   61.5097 C   0  0  0  0  0
   43.3655  -48.1357   60.1756 O   0  0  0  0  0
   42.8890  -47.3040   60.0092 H   0  0  0  0  0
   44.8260  -46.8770   61.6045 C   0  0  0  0  0
   45.9016  -47.0114   60.6937 O   0  0  0  0  0
   45.6303  -46.4487   59.4172 C   0  0  0  0  0
   44.6340  -46.0019   59.3478 H   0  0  0  0  0
   45.7267  -47.2329   58.6631 H   0  0  0  0  0
   46.3785  -45.6786   59.2121 H   0  0  0  0  0
   45.4899  -46.6990   62.9575 C   0  0  0  0  0
   46.4373  -45.5288   63.1420 C   0  0  0  0  0
   46.9413  -45.5498   64.4644 O   0  0  0  0  0
   46.1924  -45.4397   65.0747 H   0  0  0  0  0
   45.8037  -44.1785   62.8960 C   0  0  0  0  0
   46.7078  -43.1257   62.3865 C   0  0  0  0  0
   46.2855  -42.5682   61.0293 O   0  0  0  0  0
   47.4074  -43.2099   61.1682 C   0  0  0  0  0
   48.3989  -43.6221   60.6398 O   0  0  0  0  0
   47.0633  -42.4047   63.1120 H   0  0  0  0  0
   44.6210  -43.9314   63.0949 O   0  0  0  0  0
   47.2920  -45.6589   62.4695 H   0  0  0  0  0
   45.2241  -47.4339   63.9095 O   0  0  0  0  0
   44.2715  -45.9529   61.3997 H   0  0  0  0  0
   44.4383  -49.0178   61.6616 H   0  0  0  0  0
   43.0530  -48.0335   63.5014 H   0  0  0  0  0
   40.8212  -49.1977   61.5709 O   0  0  0  0  0
   42.4204  -51.6269   62.2875 O   0  0  0  0  0
   42.2123  -51.4324   61.3589 H   0  0  0  0  0
   42.4812  -51.5466   64.7912 H   0  0  0  0  0
   43.3193  -49.1621   66.2035 C   0  0  0  0  0
   43.2169  -48.0236   67.2335 C   0  0  0  0  0
   42.7220  -46.5111   66.4396 Cl  0  0  0  0  0
   42.4750  -48.2530   68.0035 H   0  0  0  0  0
   44.1801  -47.8455   67.7202 H   0  0  0  0  0
   43.6954  -50.0657   66.7023 H   0  0  0  0  0
   44.0865  -48.8877   65.4667 H   0  0  0  0  0
   41.6994  -48.5831   64.9611 H   0  0  0  0  0
   41.1359  -50.5860   67.3625 O   0  0  0  0  0
   39.2270  -49.9473   64.9864 H   0  0  0  0  0
   38.7251  -48.0201   63.7814 H   0  0  0  0  0
   38.9106  -45.4416   65.4547 H   0  0  0  0  0
   36.9983  -44.5505   63.5932 C   0  0  0  0  0
   36.6580  -44.0373   62.6886 H   0  0  0  0  0
   37.0930  -43.7932   64.3809 H   0  0  0  0  0
   36.2148  -45.2553   63.8917 H   0  0  0  0  0
   38.2188  -45.9519   62.4981 H   0  0  0  0  0
  1  2  1  0  0  0
  1  4  2  0  0  0
  1  5  1  0  0  0
  2  3  1  0  0  0
  5  6  1  0  0  0
  5 63  1  0  0  0
  5 67  1  0  0  0
  6  7  2  0  0  0
  6 62  1  0  0  0
  7  8  1  0  0  0
  7 61  1  0  0  0
  8  9  2  0  0  0
  8 10  1  0  0  0
 10 11  1  0  0  0
 10 13  1  0  0  0
 10 60  1  0  0  0
 11 12  1  0  0  0
 13 14  1  0  0  0
 13 59  2  0  0  0
 14 15  1  0  0  0
 14 51  1  0  0  0
 14 58  1  0  0  0
 15 16  2  0  0  0
 15 50  1  0  0  0
 16 17  1  0  0  0
 16 48  1  0  0  0
 17 18  1  0  0  0
 17 47  2  0  0  0
 18 19  1  0  0  0
 18 22  1  0  0  0
 18 46  1  0  0  0
 19 20  1  0  0  0
 19 21  1  0  0  0
 22 23  1  0  0  0
 22 25  1  0  0  0
 22 45  1  0  0  0
 23 24  1  0  0  0
 25 26  1  0  0  0
 25 31  1  0  0  0
 25 44  1  0  0  0
 26 27  1  0  0  0
 27 28  1  0  0  0
 27 29  1  0  0  0
 27 30  1  0  0  0
 31 32  1  0  0  0
 31 43  2  0  0  0
 32 33  1  0  0  0
 32 35  1  0  0  0
 32 42  1  0  0  0
 33 34  1  0  0  0
 35 36  1  0  0  0
 35 41  2  0  0  0
 36 37  1  0  0  0
 36 38  1  0  0  0
 36 40  1  0  0  0
 37 38  1  0  0  0
 38 39  2  0  0  0
 48 49  1  0  0  0
 51 52  1  0  0  0
 51 56  1  0  0  0
 51 57  1  0  0  0
 52 53  1  0  0  0
 52 54  1  0  0  0
 52 55  1  0  0  0
 63 64  1  0  0  0
 63 65  1  0  0  0
 63 66  1  0  0  0
M  END
> <# Confs.>
25

> <Pharmacophore Match>
(1YET) [A] GDM275

> <Matching Features>
||||HBA:495067246627921590|HBA:495067385280122077|HBA:495067408768422079|HBA:495067414144822081

> <Relative Pharmacophore-Fit Score>
0.50

> <Score>
0.49684563

> <Source Database>
conformers.ldb

> <Active/Decoy>
unknown

> <Mol. Index>
4

$$$$
4
XX    ILIB11212306383D

 68 68  0  0  1  0              1 V2000
   40.1449  -47.5062   68.1119 C   0  0  0  0  0
   39.0213  -46.5837   68.2201 N   0  0  0  0  0
   39.0911  -45.8628   67.5030 H   0  0  0  0  0
   39.0597  -46.0987   69.1146 H   0  0  0  0  0
   40.0303  -48.2523   66.7896 C   0  0  0  0  0
   38.8708  -49.2243   66.5593 C   0  0  0  0  0
   38.5450  -49.9267   67.7480 O   0  0  0  0  0
   39.2730  -51.1397   67.8830 C   0  0  0  0  0
   39.0738  -51.8031   67.0356 H   0  0  0  0  0
   38.9437  -51.6347   68.7982 H   0  0  0  0  0
   40.3456  -50.9419   67.9630 H   0  0  0  0  0
   37.5918  -48.5404   66.0487 C   0  0  0  0  0
   36.7288  -49.5432   65.4971 O   0  0  0  0  0
   36.5995  -50.2229   66.1800 H   0  0  0  0  0
   37.7605  -47.4431   64.9948 C   0  0  0  0  0
   38.5256  -47.8207   63.7316 C   0  0  0  0  0
   38.8136  -46.6838   62.7651 C   0  0  0  0  0
   38.3151  -47.0819   61.5023 O   0  0  0  0  0
   38.8189  -47.8610   61.2121 H   0  0  0  0  0
   40.2834  -46.3111   62.6358 C   0  0  0  0  0
   40.7928  -45.7723   63.8153 N   0  0  0  0  0
   42.1249  -45.1515   63.9894 C   0  0  0  0  0
   42.2543  -43.7902   63.2989 C   0  0  0  0  0
   43.5706  -43.2881   63.5329 O   0  0  0  0  0
   43.6686  -43.1724   64.4998 H   0  0  0  0  0
   41.2470  -42.7020   63.6880 C   0  0  0  0  0
   39.8301  -43.1332   63.4108 C   0  0  0  0  0
   39.4550  -42.7750   62.1558 O   0  0  0  0  0
   38.5284  -43.0326   61.9632 H   0  0  0  0  0
   39.0889  -43.7004   64.2005 O   0  0  0  0  0
   41.4464  -42.2394   65.1316 C   0  0  0  0  0
   42.4393  -41.7967   65.2594 H   0  0  0  0  0
   40.7020  -41.4850   65.4058 H   0  0  0  0  0
   41.3550  -43.0663   65.8435 H   0  0  0  0  0
   41.4080  -41.8257   63.0452 H   0  0  0  0  0
   42.1894  -43.9399   62.2039 H   0  0  0  0  0
   43.2229  -46.1088   63.6215 C   0  0  0  0  0
   44.2304  -46.5581   64.3940 C   0  0  0  0  0
   44.4790  -46.2126   65.8418 C   0  0  0  0  0
   44.2368  -47.4117   66.7738 C   0  0  0  0  0
   45.3900  -48.3067   66.8518 N   0  0  0  0  0
   46.2147  -47.7823   67.1429 H   0  0  0  0  0
   45.6057  -48.6625   65.9209 H   0  0  0  0  0
   43.9645  -46.9464   68.2004 C   0  0  0  0  0
   42.6519  -47.3661   68.8489 C   0  0  0  0  0
   42.5869  -48.7705   68.8762 O   0  0  0  0  0
   42.4862  -49.0995   67.9682 H   0  0  0  0  0
   41.4329  -46.6964   68.2181 C   0  0  0  0  0
   41.5031  -45.5360   67.8072 O   0  0  0  0  0
   42.6739  -47.0335   69.8933 H   0  0  0  0  0
   44.7669  -46.2379   68.8120 O   0  0  0  0  0
   43.3777  -47.9845   66.4189 H   0  0  0  0  0
   43.8592  -45.3679   66.1582 H   0  0  0  0  0
   45.5105  -45.8478   65.9450 H   0  0  0  0  0
   45.1948  -47.4055   63.8682 O   0  0  0  0  0
   44.9758  -47.5833   62.9373 H   0  0  0  0  0
   43.2180  -46.4420   62.5850 H   0  0  0  0  0
   42.1488  -44.9578   65.0725 H   0  0  0  0  0
   40.1747  -45.7271   64.6108 H   0  0  0  0  0
   40.8953  -46.4456   61.5792 O   0  0  0  0  0
   38.2541  -45.7924   63.0674 H   0  0  0  0  0
   38.8699  -48.9736   63.4772 O   0  0  0  0  0
   38.2603  -46.5768   65.4398 H   0  0  0  0  0
   36.7671  -47.1195   64.6599 H   0  0  0  0  0
   37.0420  -48.1123   66.8954 H   0  0  0  0  0
   39.1992  -49.9660   65.8195 H   0  0  0  0  0
   40.8611  -48.0861   65.8924 O   0  0  0  0  0
   40.1046  -48.2143   68.9443 H   0  0  0  0  0
  1  2  1  0  0  0
  1  5  1  0  0  0
  1 48  1  0  0  0
  1 68  1  0  0  0
  2  3  1  0  0  0
  2  4  1  0  0  0
  5  6  1  0  0  0
  5 67  2  0  0  0
  6  7  1  0  0  0
  6 12  1  0  0  0
  6 66  1  0  0  0
  7  8  1  0  0  0
  8  9  1  0  0  0
  8 10  1  0  0  0
  8 11  1  0  0  0
 12 13  1  0  0  0
 12 15  1  0  0  0
 12 65  1  0  0  0
 13 14  1  0  0  0
 15 16  1  0  0  0
 15 63  1  0  0  0
 15 64  1  0  0  0
 16 17  1  0  0  0
 16 62  2  0  0  0
 17 18  1  0  0  0
 17 20  1  0  0  0
 17 61  1  0  0  0
 18 19  1  0  0  0
 20 21  1  0  0  0
 20 60  2  0  0  0
 21 22  1  0  0  0
 21 59  1  0  0  0
 22 23  1  0  0  0
 22 37  1  0  0  0
 22 58  1  0  0  0
 23 24  1  0  0  0
 23 26  1  0  0  0
 23 36  1  0  0  0
 24 25  1  0  0  0
 26 27  1  0  0  0
 26 31  1  0  0  0
 26 35  1  0  0  0
 27 28  1  0  0  0
 27 30  2  0  0  0
 28 29  1  0  0  0
 31 32  1  0  0  0
 31 33  1  0  0  0
 31 34  1  0  0  0
 37 38  2  0  0  0
 37 57  1  0  0  0
 38 39  1  0  0  0
 38 55  1  0  0  0
 39 40  1  0  0  0
 39 53  1  0  0  0
 39 54  1  0  0  0
 40 41  1  0  0  0
 40 44  1  0  0  0
 40 52  1  0  0  0
 41 42  1  0  0  0
 41 43  1  0  0  0
 44 45  1  0  0  0
 44 51  2  0  0  0
 45 46  1  0  0  0
 45 48  1  0  0  0
 45 50  1  0  0  0
 46 47  1  0  0  0
 48 49  2  0  0  0
 55 56  1  0  0  0
M  END
> <# Confs.>
25

> <Pharmacophore Match>
(1YET) [A] GDM275

> <Matching Features>
|H:495067279551021655|||HBA:495067246627921590|HBA:495067385280122077|HBA:495067408768422079|HBA:495067414144822081

> <Relative Pharmacophore-Fit Score>
0.61

> <Score>
0.613873

> <Source Database>
conformers.ldb

> <Active/Decoy>
unknown

> <Mol. Index>
12

$$$$
27
XX    ILIB11212306383D

 43 43  0  0  1  0              1 V2000
   44.2763  -43.2234   64.8540 C   0  0  0  0  0
   44.9197  -44.0315   65.7327 O   0  0  0  0  0
   44.9650  -44.9799   65.4879 H   0  0  0  0  0
   44.1355  -42.0207   65.0374 O   0  0  0  0  0
   43.7566  -43.9634   63.6485 C   0  0  0  0  0
   42.3334  -44.4691   63.9061 C   0  0  0  0  0
   42.3517  -45.3515   65.0319 O   0  0  0  0  0
   42.6754  -44.8540   65.8020 H   0  0  0  0  0
   41.2975  -43.3531   64.1600 C   0  0  0  0  0
   39.9104  -43.9237   64.4033 C   0  0  0  0  0
   39.5359  -44.2455   65.8311 C   0  0  0  0  0
   38.9036  -43.0295   66.5006 C   0  0  0  0  0
   38.4719  -43.2145   67.9603 C   0  0  0  0  0
   37.7258  -41.7228   68.5777 Cl  0  0  0  0  0
   39.3191  -43.4607   68.5964 H   0  0  0  0  0
   37.7212  -44.0153   68.0513 H   0  0  0  0  0
   38.0185  -42.7358   65.9078 H   0  0  0  0  0
   39.6042  -42.1941   66.4414 H   0  0  0  0  0
   38.6345  -45.4894   65.8297 C   0  0  0  0  0
   39.2505  -46.7599   65.2314 C   0  0  0  0  0
   40.4419  -47.1928   65.9401 N   0  0  0  0  0
   40.4277  -48.4628   66.5042 C   0  0  0  0  0
   41.3093  -48.9928   67.1615 O   0  0  0  0  0
   39.0972  -49.0728   66.1644 C   0  0  0  0  0
   38.3994  -49.4548   67.3134 O   0  0  0  0  0
   38.8618  -50.2179   67.6989 H   0  0  0  0  0
   38.3666  -47.9688   65.4459 C   0  0  0  0  0
   37.2010  -48.0445   65.0783 O   0  0  0  0  0
   39.2397  -49.9176   65.4822 H   0  0  0  0  0
   41.2610  -46.5970   66.0123 H   0  0  0  0  0
   39.4988  -46.6631   64.1707 H   0  0  0  0  0
   37.7178  -45.2496   65.2736 H   0  0  0  0  0
   38.3247  -45.6974   66.8623 H   0  0  0  0  0
   40.4612  -44.5088   66.3860 H   0  0  0  0  0
   39.1505  -44.1297   63.4643 O   0  0  0  0  0
   41.5846  -42.7255   65.0008 H   0  0  0  0  0
   41.2351  -42.7155   63.2774 H   0  0  0  0  0
   42.0019  -45.0763   63.0555 H   0  0  0  0  0
   43.9065  -43.1522   62.3595 C   0  0  0  0  0
   44.9528  -42.8693   62.2062 H   0  0  0  0  0
   43.3211  -42.2271   62.3805 H   0  0  0  0  0
   43.5859  -43.7353   61.4903 H   0  0  0  0  0
   44.4105  -44.8371   63.5268 H   0  0  0  0  0
  1  2  1  0  0  0
  1  4  2  0  0  0
  1  5  1  0  0  0
  2  3  1  0  0  0
  5  6  1  0  0  0
  5 39  1  0  0  0
  5 43  1  0  0  0
  6  7  1  0  0  0
  6  9  1  0  0  0
  6 38  1  0  0  0
  7  8  1  0  0  0
  9 10  1  0  0  0
  9 36  1  0  0  0
  9 37  1  0  0  0
 10 11  1  0  0  0
 10 35  2  0  0  0
 11 12  1  0  0  0
 11 19  1  0  0  0
 11 34  1  0  0  0
 12 13  1  0  0  0
 12 17  1  0  0  0
 12 18  1  0  0  0
 13 14  1  0  0  0
 13 15  1  0  0  0
 13 16  1  0  0  0
 19 20  1  0  0  0
 19 32  1  0  0  0
 19 33  1  0  0  0
 20 21  1  0  0  0
 20 27  1  0  0  0
 20 31  1  0  0  0
 21 22  1  0  0  0
 21 30  1  0  0  0
 22 23  2  0  0  0
 22 24  1  0  0  0
 24 25  1  0  0  0
 24 27  1  0  0  0
 24 29  1  0  0  0
 25 26  1  0  0  0
 27 28  2  0  0  0
 39 40  1  0  0  0
 39 41  1  0  0  0
 39 42  1  0  0  0
M  END
> <# Confs.>
25

> <Pharmacophore Match>
(1YET) [A] GDM275

> <Matching Features>
||||HBA:495067246627921590|HBA:495067385280122077|HBA:495067408768422079|HBA:495067414144822081

> <Relative Pharmacophore-Fit Score>
0.49

> <Score>
0.49030703

> <Source Database>
conformers.ldb

> <Active/Decoy>
unknown

> <Mol. Index>
21

$$$$
2
XX    ILIB11212306383D

 68 68  0  0  1  0              1 V2000
   39.7249  -43.4450   63.7836 C   0  0  0  0  0
   39.7724  -42.6422   62.6730 O   0  0  0  0  0
   39.0779  -42.9413   62.0614 H   0  0  0  0  0
   40.5706  -43.2530   64.8230 C   0  0  0  0  0
   41.6322  -42.1949   64.8851 C   0  0  0  0  0
   41.3653  -41.3206   66.0387 N   0  0  0  0  0
   40.4933  -40.8156   65.8857 H   0  0  0  0  0
   42.0939  -40.6100   66.0990 H   0  0  0  0  0
   43.0851  -42.7001   64.9653 C   0  0  0  0  0
   43.2298  -43.4966   66.1516 O   0  0  0  0  0
   42.6136  -44.2455   66.0863 H   0  0  0  0  0
   43.5924  -43.5422   63.7844 C   0  0  0  0  0
   45.0199  -43.9404   64.0401 C   0  0  0  0  0
   45.8310  -42.8636   64.1764 O   0  0  0  0  0
   46.7639  -43.1249   64.3345 H   0  0  0  0  0
   45.4108  -45.0972   64.1141 O   0  0  0  0  0
   43.5260  -42.8021   62.4493 C   0  0  0  0  0
   42.4909  -42.5825   62.1682 H   0  0  0  0  0
   44.0780  -41.8567   62.4877 H   0  0  0  0  0
   43.9650  -43.4084   61.6496 H   0  0  0  0  0
   42.9958  -44.4598   63.6984 H   0  0  0  0  0
   43.7639  -41.8475   65.0935 H   0  0  0  0  0
   41.5372  -41.5723   63.9863 H   0  0  0  0  0
   40.4932  -43.9119   65.6868 H   0  0  0  0  0
   38.6644  -44.5215   63.7897 C   0  0  0  0  0
   39.1529  -45.8313   63.1891 C   0  0  0  0  0
   38.1294  -46.8710   63.1916 N   0  0  0  0  0
   37.8207  -47.0512   64.1529 H   0  0  0  0  0
   37.3109  -46.5392   62.6958 H   0  0  0  0  0
   40.3980  -46.3775   63.9028 C   0  0  0  0  0
   40.5916  -46.1507   65.1003 O   0  0  0  0  0
   41.3941  -47.2209   63.1294 C   0  0  0  0  0
   42.3748  -46.3809   62.5587 O   0  0  0  0  0
   42.8229  -46.8849   61.8584 H   0  0  0  0  0
   42.1057  -48.2486   63.9774 C   0  0  0  0  0
   43.3345  -48.2360   64.0946 O   0  0  0  0  0
   41.2945  -49.3020   64.7077 C   0  0  0  0  0
   41.5882  -49.1124   66.1210 N   0  0  0  0  0
   40.7587  -49.2583   67.2090 C   0  0  0  0  0
   39.3343  -49.7207   66.9687 C   0  0  0  0  0
   38.5475  -49.2861   68.0730 O   0  0  0  0  0
   38.9048  -49.6958   68.8793 H   0  0  0  0  0
   39.1972  -51.2318   66.9152 C   0  0  0  0  0
   39.1316  -51.8888   65.5511 C   0  0  0  0  0
   40.3920  -52.6771   65.1912 C   0  0  0  0  0
   40.5147  -53.7660   66.1089 O   0  0  0  0  0
   41.3099  -54.2679   65.8618 H   0  0  0  0  0
   41.6967  -51.8687   65.1957 C   0  0  0  0  0
   42.7210  -52.7316   64.7291 O   0  0  0  0  0
   43.9938  -52.4206   65.2841 C   0  0  0  0  0
   43.9927  -52.5747   66.3665 H   0  0  0  0  0
   44.2743  -51.3891   65.0493 H   0  0  0  0  0
   44.7344  -53.0931   64.8410 H   0  0  0  0  0
   41.6069  -50.7085   64.2083 C   0  0  0  0  0
   41.6967  -50.9190   62.9940 O   0  0  0  0  0
   41.9608  -51.5576   66.2085 H   0  0  0  0  0
   40.2413  -53.1279   64.2036 H   0  0  0  0  0
   38.2670  -52.5654   65.5792 H   0  0  0  0  0
   38.9070  -51.1384   64.7881 H   0  0  0  0  0
   39.1550  -51.9098   67.9456 O   0  0  0  0  0
   38.8920  -49.2583   66.0877 H   0  0  0  0  0
   41.1667  -49.0310   68.3526 O   0  0  0  0  0
   42.5419  -48.8406   66.3433 H   0  0  0  0  0
   40.2350  -49.1088   64.5300 H   0  0  0  0  0
   40.8515  -47.7198   62.3191 H   0  0  0  0  0
   39.4513  -45.6683   62.1472 H   0  0  0  0  0
   38.3576  -44.6889   64.8328 H   0  0  0  0  0
   37.7785  -44.1728   63.2678 H   0  0  0  0  0
  1  2  1  0  0  0
  1  4  2  0  0  0
  1 25  1  0  0  0
  2  3  1  0  0  0
  4  5  1  0  0  0
  4 24  1  0  0  0
  5  6  1  0  0  0
  5  9  1  0  0  0
  5 23  1  0  0  0
  6  7  1  0  0  0
  6  8  1  0  0  0
  9 10  1  0  0  0
  9 12  1  0  0  0
  9 22  1  0  0  0
 10 11  1  0  0  0
 12 13  1  0  0  0
 12 17  1  0  0  0
 12 21  1  0  0  0
 13 14  1  0  0  0
 13 16  2  0  0  0
 14 15  1  0  0  0
 17 18  1  0  0  0
 17 19  1  0  0  0
 17 20  1  0  0  0
 25 26  1  0  0  0
 25 67  1  0  0  0
 25 68  1  0  0  0
 26 27  1  0  0  0
 26 30  1  0  0  0
 26 66  1  0  0  0
 27 28  1  0  0  0
 27 29  1  0  0  0
 30 31  2  0  0  0
 30 32  1  0  0  0
 32 33  1  0  0  0
 32 35  1  0  0  0
 32 65  1  0  0  0
 33 34  1  0  0  0
 35 36  2  0  0  0
 35 37  1  0  0  0
 37 38  1  0  0  0
 37 54  1  0  0  0
 37 64  1  0  0  0
 38 39  1  0  0  0
 38 63  1  0  0  0
 39 40  1  0  0  0
 39 62  2  0  0  0
 40 41  1  0  0  0
 40 43  1  0  0  0
 40 61  1  0  0  0
 41 42  1  0  0  0
 43 44  1  0  0  0
 43 60  2  0  0  0
 44 45  1  0  0  0
 44 58  1  0  0  0
 44 59  1  0  0  0
 45 46  1  0  0  0
 45 48  1  0  0  0
 45 57  1  0  0  0
 46 47  1  0  0  0
 48 49  1  0  0  0
 48 54  1  0  0  0
 48 56  1  0  0  0
 49 50  1  0  0  0
 50 51  1  0  0  0
 50 52  1  0  0  0
 50 53  1  0  0  0
 54 55  2  0  0  0
M  END
> <# Confs.>
25

> <Pharmacophore Match>
(1YET) [A] GDM275

> <Matching Features>
||||HBA:495067246627921590|HBA:495067385280122077|HBA:495067408768422079|HBA:495067414144822081

> <Relative Pharmacophore-Fit Score>
0.50

> <Score>
0.4998221

> <Source Database>
conformers.ldb

> <Active/Decoy>
unknown

> <Mol. Index>
9

$$$$
36
XX    ILIB11212306383D

 50 50  0  0  1  0              1 V2000
   41.8148  -46.3652   67.2636 O   0  0  0  0  0
   40.4616  -46.3940   66.7342 C   0  0  0  0  0
   39.5544  -47.0903   67.7572 C   0  0  0  0  0
   38.2154  -47.1308   67.2908 O   0  0  0  0  0
   37.2674  -47.1070   68.3495 C   0  0  0  0  0
   36.2655  -47.1397   67.9130 H   0  0  0  0  0
   37.3945  -47.9816   68.9946 H   0  0  0  0  0
   37.3590  -46.1894   68.9371 H   0  0  0  0  0
   40.0703  -48.5103   67.9451 C   0  0  0  0  0
   41.5213  -48.7428   67.5833 C   0  0  0  0  0
   42.0447  -49.7884   68.3697 O   0  0  0  0  0
   42.0146  -49.5075   69.3004 H   0  0  0  0  0
   42.3907  -47.5144   67.7073 C   0  0  0  0  0
   43.5350  -47.5409   68.1477 O   0  0  0  0  0
   41.5576  -49.0660   66.5374 H   0  0  0  0  0
   39.3543  -49.4213   68.3580 O   0  0  0  0  0
   39.6301  -46.5774   68.7263 H   0  0  0  0  0
   40.0695  -44.9424   66.4715 C   0  0  0  0  0
   40.1035  -44.1534   67.6475 O   0  0  0  0  0
   40.9951  -44.1968   68.0297 H   0  0  0  0  0
   40.9413  -44.3100   65.3977 C   0  0  0  0  0
   40.9846  -44.8556   63.9805 C   0  0  0  0  0
   39.6938  -45.4803   63.7094 N   0  0  0  0  0
   38.9754  -44.7644   63.6160 H   0  0  0  0  0
   39.7199  -45.9796   62.8217 H   0  0  0  0  0
   41.3068  -43.8446   62.9118 C   0  0  0  0  0
   42.7319  -43.6128   62.5674 C   0  0  0  0  0
   43.5394  -43.1768   63.5966 O   0  0  0  0  0
   42.9790  -43.0863   64.3871 H   0  0  0  0  0
   43.2934  -43.8256   61.3577 C   0  0  0  0  0
   42.7057  -44.3730   60.1596 C   0  0  0  0  0
   43.3495  -44.5437   58.9942 C   0  0  0  0  0
   42.7106  -45.1430   57.7845 C   0  0  0  0  0
   42.7425  -44.1436   56.6601 C   0  0  0  0  0
   41.6839  -44.3181   55.8286 O   0  0  0  0  0
   41.6824  -43.6633   55.0964 H   0  0  0  0  0
   43.5821  -43.2677   56.5104 O   0  0  0  0  0
   43.4288  -46.4270   57.3817 C   0  0  0  0  0
   44.4679  -46.2309   57.0933 H   0  0  0  0  0
   42.9380  -46.8994   56.5242 H   0  0  0  0  0
   43.4335  -47.1501   58.2039 H   0  0  0  0  0
   41.6569  -45.3640   57.9984 H   0  0  0  0  0
   44.3915  -44.2391   58.9056 H   0  0  0  0  0
   41.6749  -44.7034   60.2586 H   0  0  0  0  0
   44.3544  -43.5872   61.2681 H   0  0  0  0  0
   40.4079  -43.2168   62.3377 O   0  0  0  0  0
   41.7735  -45.6348   63.9631 H   0  0  0  0  0
   41.6132  -43.3133   65.6724 O   0  0  0  0  0
   39.0331  -44.9062   66.1151 H   0  0  0  0  0
   40.4860  -46.9359   65.7786 H   0  0  0  0  0
  1  2  1  0  0  0
  1 13  1  0  0  0
  2  3  1  0  0  0
  2 18  1  0  0  0
  2 50  1  0  0  0
  3  4  1  0  0  0
  3  9  1  0  0  0
  3 17  1  0  0  0
  4  5  1  0  0  0
  5  6  1  0  0  0
  5  7  1  0  0  0
  5  8  1  0  0  0
  9 10  1  0  0  0
  9 16  2  0  0  0
 10 11  1  0  0  0
 10 13  1  0  0  0
 10 15  1  0  0  0
 11 12  1  0  0  0
 13 14  2  0  0  0
 18 19  1  0  0  0
 18 21  1  0  0  0
 18 49  1  0  0  0
 19 20  1  0  0  0
 21 22  1  0  0  0
 21 48  2  0  0  0
 22 23  1  0  0  0
 22 26  1  0  0  0
 22 47  1  0  0  0
 23 24  1  0  0  0
 23 25  1  0  0  0
 26 27  1  0  0  0
 26 46  2  0  0  0
 27 28  1  0  0  0
 27 30  2  0  0  0
 28 29  1  0  0  0
 30 31  1  0  0  0
 30 45  1  0  0  0
 31 32  2  0  0  0
 31 44  1  0  0  0
 32 33  1  0  0  0
 32 43  1  0  0  0
 33 34  1  0  0  0
 33 38  1  0  0  0
 33 42  1  0  0  0
 34 35  1  0  0  0
 34 37  2  0  0  0
 35 36  1  0  0  0
 38 39  1  0  0  0
 38 40  1  0  0  0
 38 41  1  0  0  0
M  END
> <# Confs.>
25

> <Pharmacophore Match>
(1YET) [A] GDM275

> <Matching Features>
||||HBA:495067246627921590|HBA:495067385280122077|HBA:495067408768422079|HBA:495067414144822081

> <Relative Pharmacophore-Fit Score>
0.50

> <Score>
0.4950986

> <Source Database>
conformers.ldb

> <Active/Decoy>
unknown

> <Mol. Index>
34

$$$$
44
XX    ILIB11212306383D

 54 54  0  0  1  0              1 V2000
   40.0984  -48.4050   68.5278 C   0  0  0  0  0
   39.4385  -49.1033   67.3722 C   0  0  0  0  0
   39.8022  -48.5384   66.1925 O   0  0  0  0  0
   39.3841  -48.9892   65.4277 H   0  0  0  0  0
   38.6934  -50.0688   67.4565 O   0  0  0  0  0
   41.6266  -48.4762   68.4320 C   0  0  0  0  0
   42.0633  -49.8369   68.4329 O   0  0  0  0  0
   41.8656  -50.2181   69.3053 H   0  0  0  0  0
   42.4159  -47.7011   69.4796 C   0  0  0  0  0
   43.9226  -47.8219   69.3095 C   0  0  0  0  0
   44.4663  -47.3274   67.9805 C   0  0  0  0  0
   45.8794  -47.4835   67.9538 O   0  0  0  0  0
   46.1961  -47.2097   67.0755 H   0  0  0  0  0
   44.1419  -45.8714   67.7245 C   0  0  0  0  0
   43.4381  -45.2850   66.7444 C   0  0  0  0  0
   42.7126  -45.9713   65.6446 C   0  0  0  0  0
   41.9621  -45.1470   64.6136 C   0  0  0  0  0
   40.8431  -45.9644   64.1638 N   0  0  0  0  0
   39.7854  -45.5339   63.3833 C   0  0  0  0  0
   38.7983  -46.2366   63.1699 O   0  0  0  0  0
   39.9334  -44.1449   62.7904 C   0  0  0  0  0
   38.7273  -43.7874   62.1407 O   0  0  0  0  0
   38.5813  -44.4169   61.4142 H   0  0  0  0  0
   41.0781  -43.9993   61.7977 C   0  0  0  0  0
   40.9891  -43.2283   60.8402 O   0  0  0  0  0
   42.3351  -44.8328   62.0366 C   0  0  0  0  0
   43.3686  -44.3973   61.1768 O   0  0  0  0  0
   43.3762  -45.0845   59.9315 C   0  0  0  0  0
   43.4914  -46.1615   60.0803 H   0  0  0  0  0
   44.2224  -44.7214   59.3463 H   0  0  0  0  0
   42.4564  -44.8783   59.3767 H   0  0  0  0  0
   42.8603  -44.7102   63.4605 C   0  0  0  0  0
   43.9677  -44.2171   63.6945 O   0  0  0  0  0
   42.1225  -45.8908   61.8422 H   0  0  0  0  0
   40.0845  -43.4209   63.5953 H   0  0  0  0  0
   40.7566  -46.9005   64.5492 H   0  0  0  0  0
   41.5484  -44.2475   65.0819 H   0  0  0  0  0
   42.7582  -47.2006   65.5900 O   0  0  0  0  0
   43.3777  -44.1995   66.7334 H   0  0  0  0  0
   44.5859  -45.1914   68.4527 H   0  0  0  0  0
   44.0454  -47.9469   67.1803 H   0  0  0  0  0
   44.4342  -47.2553   70.1147 H   0  0  0  0  0
   44.2279  -48.8632   69.4596 H   0  0  0  0  0
   41.9954  -48.1036   70.9006 C   0  0  0  0  0
   42.1737  -49.1688   71.0788 H   0  0  0  0  0
   40.9312  -47.9082   71.0673 H   0  0  0  0  0
   42.5530  -47.5354   71.6529 H   0  0  0  0  0
   42.1586  -46.6269   69.3835 H   0  0  0  0  0
   41.9073  -48.0790   67.4472 H   0  0  0  0  0
   39.5917  -46.9663   68.5944 C   0  0  0  0  0
   39.8432  -46.4018   67.6899 H   0  0  0  0  0
   40.0204  -46.4419   69.4538 H   0  0  0  0  0
   38.5008  -46.9466   68.6972 H   0  0  0  0  0
   39.7838  -48.9147   69.4482 H   0  0  0  0  0
  1  2  1  0  0  0
  1  6  1  0  0  0
  1 50  1  0  0  0
  1 54  1  0  0  0
  2  3  1  0  0  0
  2  5  2  0  0  0
  3  4  1  0  0  0
  6  7  1  0  0  0
  6  9  1  0  0  0
  6 49  1  0  0  0
  7  8  1  0  0  0
  9 10  1  0  0  0
  9 44  1  0  0  0
  9 48  1  0  0  0
 10 11  1  0  0  0
 10 42  1  0  0  0
 10 43  1  0  0  0
 11 12  1  0  0  0
 11 14  1  0  0  0
 11 41  1  0  0  0
 12 13  1  0  0  0
 14 15  2  0  0  0
 14 40  1  0  0  0
 15 16  1  0  0  0
 15 39  1  0  0  0
 16 17  1  0  0  0
 16 38  2  0  0  0
 17 18  1  0  0  0
 17 32  1  0  0  0
 17 37  1  0  0  0
 18 19  1  0  0  0
 18 36  1  0  0  0
 19 20  2  0  0  0
 19 21  1  0  0  0
 21 22  1  0  0  0
 21 24  1  0  0  0
 21 35  1  0  0  0
 22 23  1  0  0  0
 24 25  2  0  0  0
 24 26  1  0  0  0
 26 27  1  0  0  0
 26 32  1  0  0  0
 26 34  1  0  0  0
 27 28  1  0  0  0
 28 29  1  0  0  0
 28 30  1  0  0  0
 28 31  1  0  0  0
 32 33  2  0  0  0
 44 45  1  0  0  0
 44 46  1  0  0  0
 44 47  1  0  0  0
 50 51  1  0  0  0
 50 52  1  0  0  0
 50 53  1  0  0  0
M  END
> <# Confs.>
25

> <Pharmacophore Match>
(1YET) [A] GDM275

> <Matching Features>
||||HBA:495067246627921590|HBA:495067385280122077|HBA:495067408768422079|HBA:495067414144822081

> <Relative Pharmacophore-Fit Score>
0.51

> <Score>
0.510549

> <Source Database>
conformers.ldb

> <Active/Decoy>
unknown

> <Mol. Index>
39

$$$$
38
XX    ILIB11212306383D

 50 50  0  0  1  0              1 V2000
   43.6056  -45.5333   62.1548 C   0  0  0  0  0
   44.8407  -45.3914   61.3848 N   0  0  0  0  0
   45.5829  -45.9418   61.8144 H   0  0  0  0  0
   44.7063  -45.7720   60.4490 H   0  0  0  0  0
   43.2253  -47.0100   62.2178 C   0  0  0  0  0
   43.9240  -47.8889   61.7143 O   0  0  0  0  0
   41.9368  -47.3604   62.9096 C   0  0  0  0  0
   41.5455  -48.6420   62.9923 C   0  0  0  0  0
   40.3700  -49.0952   63.6796 C   0  0  0  0  0
   39.9645  -48.6045   64.8439 C   0  0  0  0  0
   38.7521  -49.0192   65.6198 C   0  0  0  0  0
   39.1781  -49.5307   66.9707 C   0  0  0  0  0
   38.1325  -49.9284   67.7394 O   0  0  0  0  0
   37.2443  -49.8332   67.3356 H   0  0  0  0  0
   40.3408  -49.5843   67.3521 O   0  0  0  0  0
   37.7862  -47.8486   65.7700 C   0  0  0  0  0
   37.4959  -47.4467   64.7934 H   0  0  0  0  0
   38.2306  -47.0343   66.3546 H   0  0  0  0  0
   36.8720  -48.1569   66.2873 H   0  0  0  0  0
   38.2492  -49.8447   65.0993 H   0  0  0  0  0
   40.5555  -47.8101   65.2993 H   0  0  0  0  0
   39.7990  -49.8989   63.1847 H   0  0  0  0  0
   42.1537  -49.4212   62.5133 H   0  0  0  0  0
   41.2256  -46.3224   63.5250 O   0  0  0  0  0
   40.2831  -45.7182   62.7330 C   0  0  0  0  0
   39.9395  -46.0735   61.6128 O   0  0  0  0  0
   39.7254  -44.5135   63.4624 C   0  0  0  0  0
   38.6331  -44.0125   62.7085 O   0  0  0  0  0
   38.9637  -43.7402   61.8400 H   0  0  0  0  0
   40.7314  -43.3811   63.6320 C   0  0  0  0  0
   40.8407  -42.5092   62.7656 O   0  0  0  0  0
   41.5485  -43.3086   64.9316 C   0  0  0  0  0
   41.5881  -44.5840   65.5632 O   0  0  0  0  0
   41.6910  -44.5011   66.9795 C   0  0  0  0  0
   41.7613  -45.5182   67.3752 H   0  0  0  0  0
   42.5927  -43.9523   67.2678 H   0  0  0  0  0
   40.8041  -44.0267   67.4079 H   0  0  0  0  0
   42.9797  -42.7692   64.7235 C   0  0  0  0  0
   42.8805  -41.3510   64.5358 O   0  0  0  0  0
   43.7852  -41.0069   64.4374 H   0  0  0  0  0
   43.7718  -43.3501   63.5416 C   0  0  0  0  0
   45.1249  -42.9006   63.6114 O   0  0  0  0  0
   45.4852  -43.1633   64.4757 H   0  0  0  0  0
   43.8644  -44.8691   63.5000 C   0  0  0  0  0
   44.1966  -45.5185   64.4916 O   0  0  0  0  0
   43.3774  -42.9748   62.5936 H   0  0  0  0  0
   43.5573  -42.9122   65.6445 H   0  0  0  0  0
   40.9780  -42.6170   65.5692 H   0  0  0  0  0
   39.3178  -44.8181   64.4296 H   0  0  0  0  0
   42.8032  -45.0018   61.6334 H   0  0  0  0  0
  1  2  1  0  0  0
  1  5  1  0  0  0
  1 44  1  0  0  0
  1 50  1  0  0  0
  2  3  1  0  0  0
  2  4  1  0  0  0
  5  6  2  0  0  0
  5  7  1  0  0  0
  7  8  2  0  0  0
  7 24  1  0  0  0
  8  9  1  0  0  0
  8 23  1  0  0  0
  9 10  2  0  0  0
  9 22  1  0  0  0
 10 11  1  0  0  0
 10 21  1  0  0  0
 11 12  1  0  0  0
 11 16  1  0  0  0
 11 20  1  0  0  0
 12 13  1  0  0  0
 12 15  2  0  0  0
 13 14  1  0  0  0
 16 17  1  0  0  0
 16 18  1  0  0  0
 16 19  1  0  0  0
 24 25  1  0  0  0
 25 26  2  0  0  0
 25 27  1  0  0  0
 27 28  1  0  0  0
 27 30  1  0  0  0
 27 49  1  0  0  0
 28 29  1  0  0  0
 30 31  2  0  0  0
 30 32  1  0  0  0
 32 33  1  0  0  0
 32 38  1  0  0  0
 32 48  1  0  0  0
 33 34  1  0  0  0
 34 35  1  0  0  0
 34 36  1  0  0  0
 34 37  1  0  0  0
 38 39  1  0  0  0
 38 41  1  0  0  0
 38 47  1  0  0  0
 39 40  1  0  0  0
 41 42  1  0  0  0
 41 44  1  0  0  0
 41 46  1  0  0  0
 42 43  1  0  0  0
 44 45  2  0  0  0
M  END
> <# Confs.>
25

> <Pharmacophore Match>
(1YET) [A] GDM275

> <Matching Features>
|||H:495067340233021826|HBA:495067246627921590|HBA:495067385280122077|HBA:495067408768422079|HBA:495067414144822081

> <Relative Pharmacophore-Fit Score>
0.61

> <Score>
0.6122027

> <Source Database>
conformers.ldb

> <Active/Decoy>
unknown

> <Mol. Index>
47

$$$$
67
XX    ILIB11212306383D

 73 73  0  0  1  0              1 V2000
   43.6362  -46.2934   62.2136 C   0  0  0  0  0
   44.8008  -47.2161   61.9884 C   0  0  0  0  0
   45.1499  -47.8799   63.1185 O   0  0  0  0  0
   45.9096  -48.4830   62.9697 H   0  0  0  0  0
   45.3645  -47.3690   60.9140 O   0  0  0  0  0
   44.0354  -44.8495   61.9014 C   0  0  0  0  0
   45.1138  -44.4268   62.7391 O   0  0  0  0  0
   44.8340  -44.5423   63.6630 H   0  0  0  0  0
   42.8810  -43.8384   61.9663 C   0  0  0  0  0
   43.3861  -42.4966   61.6489 N   0  0  0  0  0
   44.1892  -42.2883   62.2425 H   0  0  0  0  0
   43.7430  -42.4879   60.6948 H   0  0  0  0  0
   42.1264  -43.8973   63.2755 C   0  0  0  0  0
   40.8031  -44.1754   63.3986 C   0  0  0  0  0
   40.1731  -44.1992   64.7145 C   0  0  0  0  0
   40.3808  -43.3640   65.7426 C   0  0  0  0  0
   39.6439  -43.5502   66.9769 C   0  0  0  0  0
   39.3252  -44.7063   67.5974 C   0  0  0  0  0
   39.6840  -46.0818   67.0811 C   0  0  0  0  0
   40.5132  -46.7663   68.0590 O   0  0  0  0  0
   41.8606  -46.8205   67.8453 C   0  0  0  0  0
   42.4793  -46.1826   67.0042 O   0  0  0  0  0
   42.4782  -47.8108   68.8190 C   0  0  0  0  0
   41.7211  -49.1388   68.8692 C   0  0  0  0  0
   41.3455  -49.6074   69.9468 O   0  0  0  0  0
   41.4850  -49.8783   67.5650 C   0  0  0  0  0
   42.4321  -50.9295   67.5654 O   0  0  0  0  0
   42.5316  -51.2328   66.6470 H   0  0  0  0  0
   40.0811  -50.4471   67.4134 C   0  0  0  0  0
   39.8918  -51.6496   67.2267 O   0  0  0  0  0
   38.9201  -49.4641   67.4961 C   0  0  0  0  0
   37.6862  -50.1420   67.3729 O   0  0  0  0  0
   37.6704  -50.5835   66.5058 H   0  0  0  0  0
   38.9258  -48.3849   66.4272 C   0  0  0  0  0
   39.3018  -48.6258   65.2794 O   0  0  0  0  0
   38.4559  -46.9915   66.8534 C   0  0  0  0  0
   37.5567  -46.5207   65.8029 N   0  0  0  0  0
   38.0891  -46.3131   64.9593 H   0  0  0  0  0
   37.1258  -45.6420   66.0857 H   0  0  0  0  0
   37.8788  -47.0997   67.7795 H   0  0  0  0  0
   38.9465  -49.0103   68.4885 H   0  0  0  0  0
   41.6913  -49.2303   66.7105 H   0  0  0  0  0
   43.9527  -48.0528   68.5060 C   0  0  0  0  0
   44.8677  -47.0824   69.2410 C   0  0  0  0  0
   45.9144  -47.3048   69.0129 H   0  0  0  0  0
   44.6711  -46.0469   68.9454 H   0  0  0  0  0
   44.7334  -47.1639   70.3254 H   0  0  0  0  0
   44.1340  -47.9638   67.4267 H   0  0  0  0  0
   44.2346  -49.0747   68.7873 H   0  0  0  0  0
   42.4030  -47.3450   69.8108 H   0  0  0  0  0
   40.2443  -45.9842   66.1422 H   0  0  0  0  0
   38.5737  -44.6436   68.8972 C   0  0  0  0  0
   39.4512  -44.5765   70.1461 C   0  0  0  0  0
   38.4440  -44.5067   71.6100 Cl  0  0  0  0  0
   40.0940  -45.4581   70.2252 H   0  0  0  0  0
   40.0855  -43.6846   70.1350 H   0  0  0  0  0
   37.9096  -43.7703   68.8728 H   0  0  0  0  0
   37.9198  -45.5223   68.9796 H   0  0  0  0  0
   39.2970  -42.6157   67.4178 H   0  0  0  0  0
   41.2219  -42.2810   65.7194 N   0  0  0  0  0
   41.7348  -42.0451   64.8806 H   0  0  0  0  0
   41.2983  -41.6840   66.5332 H   0  0  0  0  0
   39.4413  -45.0068   64.8057 H   0  0  0  0  0
   40.0401  -44.4378   62.2912 O   0  0  0  0  0
   39.1233  -44.6060   62.5608 H   0  0  0  0  0
   42.7129  -43.6964   64.1722 H   0  0  0  0  0
   42.1588  -44.0961   61.1804 H   0  0  0  0  0
   44.4296  -44.8223   60.8768 H   0  0  0  0  0
   42.4625  -46.7652   61.3549 C   0  0  0  0  0
   41.5613  -46.1790   61.5601 H   0  0  0  0  0
   42.6893  -46.6792   60.2867 H   0  0  0  0  0
   42.2318  -47.8161   61.5578 H   0  0  0  0  0
   43.3154  -46.3639   63.2611 H   0  0  0  0  0
  1  2  1  0  0  0
  1  6  1  0  0  0
  1 69  1  0  0  0
  1 73  1  0  0  0
  2  3  1  0  0  0
  2  5  2  0  0  0
  3  4  1  0  0  0
  6  7  1  0  0  0
  6  9  1  0  0  0
  6 68  1  0  0  0
  7  8  1  0  0  0
  9 10  1  0  0  0
  9 13  1  0  0  0
  9 67  1  0  0  0
 10 11  1  0  0  0
 10 12  1  0  0  0
 13 14  2  0  0  0
 13 66  1  0  0  0
 14 15  1  0  0  0
 14 64  1  0  0  0
 15 16  2  0  0  0
 15 63  1  0  0  0
 16 17  1  0  0  0
 16 60  1  0  0  0
 17 18  2  0  0  0
 17 59  1  0  0  0
 18 19  1  0  0  0
 18 52  1  0  0  0
 19 20  1  0  0  0
 19 36  1  0  0  0
 19 51  1  0  0  0
 20 21  1  0  0  0
 21 22  2  0  0  0
 21 23  1  0  0  0
 23 24  1  0  0  0
 23 43  1  0  0  0
 23 50  1  0  0  0
 24 25  2  0  0  0
 24 26  1  0  0  0
 26 27  1  0  0  0
 26 29  1  0  0  0
 26 42  1  0  0  0
 27 28  1  0  0  0
 29 30  2  0  0  0
 29 31  1  0  0  0
 31 32  1  0  0  0
 31 34  1  0  0  0
 31 41  1  0  0  0
 32 33  1  0  0  0
 34 35  2  0  0  0
 34 36  1  0  0  0
 36 37  1  0  0  0
 36 40  1  0  0  0
 37 38  1  0  0  0
 37 39  1  0  0  0
 43 44  1  0  0  0
 43 48  1  0  0  0
 43 49  1  0  0  0
 44 45  1  0  0  0
 44 46  1  0  0  0
 44 47  1  0  0  0
 52 53  1  0  0  0
 52 57  1  0  0  0
 52 58  1  0  0  0
 53 54  1  0  0  0
 53 55  1  0  0  0
 53 56  1  0  0  0
 60 61  1  0  0  0
 60 62  1  0  0  0
 64 65  1  0  0  0
 69 70  1  0  0  0
 69 71  1  0  0  0
 69 72  1  0  0  0
M  END
> <# Confs.>
25

> <Pharmacophore Match>
(1YET) [A] GDM275

> <Matching Features>
H:495067227192821472||H:495067334351321757||HBA:495067246627921590|HBA:495067385280122077|HBA:495067408768422079|HBA:495067414144822081

> <Relative Pharmacophore-Fit Score>
0.72

> <Score>
0.7170858

> <Source Database>
conformers.ldb

> <Active/Decoy>
unknown

> <Mol. Index>
76

$$$$
43
XX    ILIB11212306383D

 84 84  0  0  1  0              1 V2000
   44.6272  -45.0250   69.0374 C   0  0  0  0  0
   44.3437  -43.9175   69.7822 N   0  0  0  0  0
   43.4069  -43.7603   70.1306 H   0  0  0  0  0
   45.0810  -43.2633   70.0105 H   0  0  0  0  0
   43.7710  -46.0010   68.6862 C   0  0  0  0  0
   42.3022  -46.0218   69.0061 C   0  0  0  0  0
   41.9705  -46.7987   70.2854 C   0  0  0  0  0
   42.2759  -48.3034   70.2247 C   0  0  0  0  0
   41.5188  -49.0270   69.1098 C   0  0  0  0  0
   40.0026  -49.0150   69.1414 C   0  0  0  0  0
   39.3188  -49.5101   67.8807 C   0  0  0  0  0
   39.5509  -48.7325   66.5849 C   0  0  0  0  0
   39.2460  -47.2521   66.6999 C   0  0  0  0  0
   40.1168  -46.5674   65.9005 O   0  0  0  0  0
   40.0455  -45.2031   65.8852 C   0  0  0  0  0
   41.0924  -44.6856   64.9239 C   0  0  0  0  0
   40.8128  -45.1098   63.4868 C   0  0  0  0  0
   41.5932  -46.3022   62.9566 C   0  0  0  0  0
   41.0595  -46.6854   61.7046 O   0  0  0  0  0
   41.3393  -47.6014   61.5340 H   0  0  0  0  0
   43.0595  -46.0110   62.7162 C   0  0  0  0  0
   44.0572  -47.0454   63.2037 C   0  0  0  0  0
   44.0827  -46.9597   64.6087 O   0  0  0  0  0
   43.3706  -47.5215   64.9575 H   0  0  0  0  0
   45.4475  -46.9017   62.5928 C   0  0  0  0  0
   46.6450  -46.7620   63.5281 C   0  0  0  0  0
   47.8481  -46.9358   62.7961 O   0  0  0  0  0
   48.2729  -48.2915   62.7561 C   0  0  0  0  0
   47.5473  -48.9096   62.2196 H   0  0  0  0  0
   48.4224  -48.6800   63.7690 H   0  0  0  0  0
   49.2250  -48.3370   62.2204 H   0  0  0  0  0
   46.7675  -45.3793   64.1532 C   0  0  0  0  0
   47.8879  -45.1778   65.1736 C   0  0  0  0  0
   48.8246  -44.2296   64.5676 N   0  0  0  0  0
   49.5886  -44.0452   65.2158 H   0  0  0  0  0
   48.3642  -43.3329   64.4140 H   0  0  0  0  0
   47.3798  -44.6914   66.5463 C   0  0  0  0  0
   46.6911  -43.4444   66.4051 O   0  0  0  0  0
   47.3382  -42.7868   66.0977 H   0  0  0  0  0
   46.4134  -45.6769   67.2387 C   0  0  0  0  0
   47.0146  -46.9965   67.4076 N   0  0  0  0  0
   46.3793  -47.6123   67.9120 H   0  0  0  0  0
   47.8636  -46.9282   67.9674 H   0  0  0  0  0
   46.0681  -45.1712   68.6424 C   0  0  0  0  0
   46.9467  -44.8485   69.4457 O   0  0  0  0  0
   45.4994  -45.7522   66.6423 H   0  0  0  0  0
   48.2423  -44.5045   67.2006 H   0  0  0  0  0
   48.4220  -46.1255   65.3003 H   0  0  0  0  0
   46.0036  -44.4633   63.8467 O   0  0  0  0  0
   46.5717  -47.5052   64.3293 H   0  0  0  0  0
   45.5866  -46.8990   61.3682 O   0  0  0  0  0
   43.7057  -48.0435   62.9176 H   0  0  0  0  0
   43.4157  -44.9876   62.1309 O   0  0  0  0  0
   41.4640  -47.1332   63.6556 H   0  0  0  0  0
   39.9460  -44.5508   62.8139 O   0  0  0  0  0
   41.2172  -43.1593   65.0247 C   0  0  0  0  0
   42.2656  -42.5504   64.0886 C   0  0  0  0  0
   42.0535  -42.7637   63.0481 H   0  0  0  0  0
   42.2931  -41.4636   64.2220 H   0  0  0  0  0
   43.2774  -42.9281   64.3245 H   0  0  0  0  0
   40.2584  -42.6997   64.7992 H   0  0  0  0  0
   41.4780  -42.8820   66.0560 H   0  0  0  0  0
   42.0607  -45.1087   65.2464 H   0  0  0  0  0
   39.2665  -44.4993   66.5142 O   0  0  0  0  0
   38.3471  -46.7850   67.3865 O   0  0  0  0  0
   38.7263  -49.2999   65.4328 C   0  0  0  0  0
   38.9250  -48.7597   64.5016 H   0  0  0  0  0
   38.9589  -50.3586   65.2661 H   0  0  0  0  0
   37.6522  -49.2236   65.6379 H   0  0  0  0  0
   40.6125  -48.8543   66.3399 H   0  0  0  0  0
   38.6180  -50.5235   67.9163 O   0  0  0  0  0
   39.6829  -49.6582   69.9676 H   0  0  0  0  0
   39.6357  -48.0077   69.3454 H   0  0  0  0  0
   42.1424  -49.6391   68.2400 O   0  0  0  0  0
   41.9866  -48.9723   71.5674 C   0  0  0  0  0
   40.9503  -48.8123   71.8841 H   0  0  0  0  0
   42.1524  -50.0524   71.5095 H   0  0  0  0  0
   42.6415  -48.5708   72.3475 H   0  0  0  0  0
   43.3447  -48.4391   70.0195 H   0  0  0  0  0
   40.9109  -46.6398   70.5151 H   0  0  0  0  0
   42.5255  -46.3563   71.1217 H   0  0  0  0  0
   41.7701  -46.4507   68.1510 H   0  0  0  0  0
   41.9188  -44.9997   69.1038 H   0  0  0  0  0
   44.1245  -46.8691   68.1354 H   0  0  0  0  0
  1  2  1  0  0  0
  1  5  2  0  0  0
  1 44  1  0  0  0
  2  3  1  0  0  0
  2  4  1  0  0  0
  5  6  1  0  0  0
  5 84  1  0  0  0
  6  7  1  0  0  0
  6 82  1  0  0  0
  6 83  1  0  0  0
  7  8  1  0  0  0
  7 80  1  0  0  0
  7 81  1  0  0  0
  8  9  1  0  0  0
  8 75  1  0  0  0
  8 79  1  0  0  0
  9 10  1  0  0  0
  9 74  2  0  0  0
 10 11  1  0  0  0
 10 72  1  0  0  0
 10 73  1  0  0  0
 11 12  1  0  0  0
 11 71  2  0  0  0
 12 13  1  0  0  0
 12 66  1  0  0  0
 12 70  1  0  0  0
 13 14  1  0  0  0
 13 65  2  0  0  0
 14 15  1  0  0  0
 15 16  1  0  0  0
 15 64  2  0  0  0
 16 17  1  0  0  0
 16 56  1  0  0  0
 16 63  1  0  0  0
 17 18  1  0  0  0
 17 55  2  0  0  0
 18 19  1  0  0  0
 18 21  1  0  0  0
 18 54  1  0  0  0
 19 20  1  0  0  0
 21 22  1  0  0  0
 21 53  2  0  0  0
 22 23  1  0  0  0
 22 25  1  0  0  0
 22 52  1  0  0  0
 23 24  1  0  0  0
 25 26  1  0  0  0
 25 51  2  0  0  0
 26 27  1  0  0  0
 26 32  1  0  0  0
 26 50  1  0  0  0
 27 28  1  0  0  0
 28 29  1  0  0  0
 28 30  1  0  0  0
 28 31  1  0  0  0
 32 33  1  0  0  0
 32 49  2  0  0  0
 33 34  1  0  0  0
 33 37  1  0  0  0
 33 48  1  0  0  0
 34 35  1  0  0  0
 34 36  1  0  0  0
 37 38  1  0  0  0
 37 40  1  0  0  0
 37 47  1  0  0  0
 38 39  1  0  0  0
 40 41  1  0  0  0
 40 44  1  0  0  0
 40 46  1  0  0  0
 41 42  1  0  0  0
 41 43  1  0  0  0
 44 45  2  0  0  0
 56 57  1  0  0  0
 56 61  1  0  0  0
 56 62  1  0  0  0
 57 58  1  0  0  0
 57 59  1  0  0  0
 57 60  1  0  0  0
 66 67  1  0  0  0
 66 68  1  0  0  0
 66 69  1  0  0  0
 75 76  1  0  0  0
 75 77  1  0  0  0
 75 78  1  0  0  0
M  END
> <# Confs.>
24

> <Pharmacophore Match>
(1YET) [A] GDM275

> <Matching Features>
|H:495067279551021655|||HBA:495067246627921590|HBA:495067385280122077|HBA:495067408768422079|HBA:495067414144822081

> <Relative Pharmacophore-Fit Score>
0.62

> <Score>
0.6169337

> <Source Database>
conformers.ldb

> <Active/Decoy>
unknown

> <Mol. Index>
55

$$$$
66
XX    ILIB11212306383D

 73 73  0  0  1  0              1 V2000
   44.4687  -46.1395   64.0967 C   0  0  0  0  0
   44.3360  -47.8493   63.6255 Cl  0  0  0  0  0
   43.9588  -45.2426   62.9830 C   0  0  0  0  0
   44.0508  -43.7750   63.3261 C   0  0  0  0  0
   42.9771  -42.9596   63.3785 C   0  0  0  0  0
   41.5792  -43.3027   63.1923 C   0  0  0  0  0
   40.8691  -42.3943   62.4168 N   0  0  0  0  0
   39.9051  -42.5773   62.1732 H   0  0  0  0  0
   41.3235  -41.5649   62.0551 H   0  0  0  0  0
   41.0834  -44.4434   63.6763 C   0  0  0  0  0
   39.7307  -44.9395   63.5546 C   0  0  0  0  0
   38.9102  -44.0547   62.8778 O   0  0  0  0  0
   38.0158  -44.4360   62.8327 H   0  0  0  0  0
   39.2526  -46.0956   64.0538 C   0  0  0  0  0
   39.9881  -47.1213   64.8666 C   0  0  0  0  0
   39.8789  -46.8313   66.2990 N   0  0  0  0  0
   38.9048  -46.8679   66.5946 H   0  0  0  0  0
   40.2131  -45.8885   66.4924 H   0  0  0  0  0
   39.4476  -48.5324   64.6131 C   0  0  0  0  0
   39.6230  -48.8110   63.2162 O   0  0  0  0  0
   40.5771  -48.8150   63.0316 H   0  0  0  0  0
   40.1599  -49.6248   65.4090 C   0  0  0  0  0
   40.0252  -49.3734   66.8842 C   0  0  0  0  0
   41.2288  -49.2216   67.4916 O   0  0  0  0  0
   41.1361  -49.0726   68.4557 H   0  0  0  0  0
   38.9582  -49.3490   67.4835 O   0  0  0  0  0
   39.5881  -51.0044   65.0905 C   0  0  0  0  0
   39.7185  -51.2438   64.0303 H   0  0  0  0  0
   38.5196  -51.0571   65.3234 H   0  0  0  0  0
   40.0913  -51.7784   65.6769 H   0  0  0  0  0
   41.2243  -49.6265   65.1409 H   0  0  0  0  0
   38.3674  -48.5562   64.7965 H   0  0  0  0  0
   41.0546  -47.1049   64.6094 H   0  0  0  0  0
   38.2007  -46.3196   63.8736 H   0  0  0  0  0
   41.7458  -45.1209   64.2142 H   0  0  0  0  0
   43.1428  -41.8940   63.5911 H   0  0  0  0  0
   45.4610  -43.2852   63.5992 C   0  0  0  0  0
   45.3596  -42.2144   64.5442 O   0  0  0  0  0
   46.2602  -41.9794   64.8246 H   0  0  0  0  0
   46.1790  -42.7768   62.3407 C   0  0  0  0  0
   45.4997  -41.6549   61.6925 N   0  0  0  0  0
   45.3165  -40.9215   62.3761 H   0  0  0  0  0
   44.5821  -41.9565   61.3675 H   0  0  0  0  0
   47.6110  -42.3848   62.6498 C   0  0  0  0  0
   47.8764  -41.5042   63.4710 O   0  0  0  0  0
   48.7229  -43.0441   61.8559 C   0  0  0  0  0
   49.9405  -42.4784   62.3683 O   0  0  0  0  0
   51.1072  -42.4429   61.6768 C   0  0  0  0  0
   51.1989  -43.3047   60.4260 C   0  0  0  0  0
   50.9971  -44.7939   60.7034 C   0  0  0  0  0
   49.5628  -45.2634   60.8713 C   0  0  0  0  0
   49.5402  -46.6574   61.1005 O   0  0  0  0  0
   50.0173  -46.8326   61.9288 H   0  0  0  0  0
   48.8284  -44.5514   61.9907 C   0  0  0  0  0
   48.3563  -45.1641   62.9469 O   0  0  0  0  0
   49.0255  -45.0834   59.9344 H   0  0  0  0  0
   51.9377  -45.5837   60.7847 O   0  0  0  0  0
   52.4900  -43.0512   59.6530 C   0  0  0  0  0
   52.3226  -43.2760   58.1556 C   0  0  0  0  0
   53.2642  -43.0747   57.6361 H   0  0  0  0  0
   52.0325  -44.3078   57.9370 H   0  0  0  0  0
   51.5611  -42.6067   57.7425 H   0  0  0  0  0
   53.2918  -43.7017   60.0238 H   0  0  0  0  0
   52.8255  -42.0198   59.8120 H   0  0  0  0  0
   50.4062  -42.9830   59.7403 H   0  0  0  0  0
   52.0362  -41.7444   62.0751 O   0  0  0  0  0
   48.5542  -42.7684   60.8100 H   0  0  0  0  0
   46.2376  -43.5880   61.6036 H   0  0  0  0  0
   46.0490  -44.0779   64.0811 H   0  0  0  0  0
   44.5331  -45.4378   62.0670 H   0  0  0  0  0
   42.9127  -45.4854   62.7564 H   0  0  0  0  0
   45.5208  -45.9373   64.3186 H   0  0  0  0  0
   43.8870  -46.0005   65.0126 H   0  0  0  0  0
  1  2  1  0  0  0
  1  3  1  0  0  0
  1 72  1  0  0  0
  1 73  1  0  0  0
  3  4  1  0  0  0
  3 70  1  0  0  0
  3 71  1  0  0  0
  4  5  2  0  0  0
  4 37  1  0  0  0
  5  6  1  0  0  0
  5 36  1  0  0  0
  6  7  1  0  0  0
  6 10  2  0  0  0
  7  8  1  0  0  0
  7  9  1  0  0  0
 10 11  1  0  0  0
 10 35  1  0  0  0
 11 12  1  0  0  0
 11 14  2  0  0  0
 12 13  1  0  0  0
 14 15  1  0  0  0
 14 34  1  0  0  0
 15 16  1  0  0  0
 15 19  1  0  0  0
 15 33  1  0  0  0
 16 17  1  0  0  0
 16 18  1  0  0  0
 19 20  1  0  0  0
 19 22  1  0  0  0
 19 32  1  0  0  0
 20 21  1  0  0  0
 22 23  1  0  0  0
 22 27  1  0  0  0
 22 31  1  0  0  0
 23 24  1  0  0  0
 23 26  2  0  0  0
 24 25  1  0  0  0
 27 28  1  0  0  0
 27 29  1  0  0  0
 27 30  1  0  0  0
 37 38  1  0  0  0
 37 40  1  0  0  0
 37 69  1  0  0  0
 38 39  1  0  0  0
 40 41  1  0  0  0
 40 44  1  0  0  0
 40 68  1  0  0  0
 41 42  1  0  0  0
 41 43  1  0  0  0
 44 45  2  0  0  0
 44 46  1  0  0  0
 46 47  1  0  0  0
 46 54  1  0  0  0
 46 67  1  0  0  0
 47 48  1  0  0  0
 48 49  1  0  0  0
 48 66  2  0  0  0
 49 50  1  0  0  0
 49 58  1  0  0  0
 49 65  1  0  0  0
 50 51  1  0  0  0
 50 57  2  0  0  0
 51 52  1  0  0  0
 51 54  1  0  0  0
 51 56  1  0  0  0
 52 53  1  0  0  0
 54 55  2  0  0  0
 58 59  1  0  0  0
 58 63  1  0  0  0
 58 64  1  0  0  0
 59 60  1  0  0  0
 59 61  1  0  0  0
 59 62  1  0  0  0
M  END
> <# Confs.>
25

> <Pharmacophore Match>
(1YET) [A] GDM275

> <Matching Features>
|H:495067279551021655|H:495067334351321757||HBA:495067246627921590|HBA:495067385280122077|HBA:495067408768422079|HBA:495067414144822081

> <Relative Pharmacophore-Fit Score>
0.72

> <Score>
0.72472274

> <Source Database>
conformers.ldb

> <Active/Decoy>
unknown

> <Mol. Index>
63

$$$$
110
XX    ILIB11212306383D

 74 74  0  0  1  0              1 V2000
   41.3309  -41.1878   65.0104 C   0  0  0  0  0
   42.8112  -41.7858   65.7954 Cl  0  0  0  0  0
   40.1423  -42.0634   65.3303 C   0  0  0  0  0
   40.2431  -43.5280   64.9072 C   0  0  0  0  0
   40.4275  -43.6322   63.3670 C   0  0  0  0  0
   39.1262  -43.6266   62.7625 O   0  0  0  0  0
   39.2345  -43.3636   61.8328 H   0  0  0  0  0
   41.2852  -44.8477   62.8877 C   0  0  0  0  0
   42.8083  -44.5054   62.8981 C   0  0  0  0  0
   43.1725  -43.9343   64.1526 O   0  0  0  0  0
   44.0338  -43.4987   64.0447 H   0  0  0  0  0
   43.7434  -45.7003   62.5797 C   0  0  0  0  0
   43.5835  -46.8422   63.5955 C   0  0  0  0  0
   43.0692  -48.1866   63.0877 C   0  0  0  0  0
   43.6529  -48.4736   61.8293 O   0  0  0  0  0
   44.6158  -48.5364   61.9516 H   0  0  0  0  0
   43.3734  -49.3723   63.9848 C   0  0  0  0  0
   42.7060  -49.2441   65.1734 O   0  0  0  0  0
   42.9739  -50.1744   66.1443 C   0  0  0  0  0
   42.1471  -49.8647   67.3721 C   0  0  0  0  0
   42.6560  -50.6520   68.4342 O   0  0  0  0  0
   42.5359  -50.1505   69.2580 H   0  0  0  0  0
   40.6736  -50.2072   67.2543 C   0  0  0  0  0
   39.7319  -49.6457   68.3233 C   0  0  0  0  0
   38.6561  -50.5650   68.4212 O   0  0  0  0  0
   38.8947  -51.5845   69.3835 C   0  0  0  0  0
   39.7968  -52.1496   69.1284 H   0  0  0  0  0
   38.0420  -52.2673   69.3788 H   0  0  0  0  0
   38.9878  -51.1568   70.3864 H   0  0  0  0  0
   39.2402  -48.2229   67.9817 C   0  0  0  0  0
   40.3377  -47.3153   68.1058 O   0  0  0  0  0
   40.6659  -47.3749   69.0181 H   0  0  0  0  0
   38.6243  -48.0597   66.5788 C   0  0  0  0  0
   37.4148  -48.8538   66.3913 N   0  0  0  0  0
   37.0177  -48.6742   65.4703 H   0  0  0  0  0
   36.7083  -48.5822   67.0740 H   0  0  0  0  0
   38.2446  -46.5967   66.3399 C   0  0  0  0  0
   39.1230  -45.8365   65.3562 C   0  0  0  0  0
   38.7002  -46.2638   64.0723 O   0  0  0  0  0
   37.8134  -45.8995   63.9084 H   0  0  0  0  0
   39.0279  -44.3180   65.5051 C   0  0  0  0  0
   38.9765  -44.0783   66.5755 H   0  0  0  0  0
   38.0911  -43.9580   65.0633 H   0  0  0  0  0
   40.1555  -46.1594   65.5246 H   0  0  0  0  0
   37.2900  -46.0700   66.9109 O   0  0  0  0  0
   39.3516  -48.3427   65.8100 H   0  0  0  0  0
   38.4972  -47.9089   68.7242 H   0  0  0  0  0
   40.2856  -49.6470   69.2709 H   0  0  0  0  0
   40.2583  -50.9284   66.3440 O   0  0  0  0  0
   42.2932  -48.8104   67.6151 H   0  0  0  0  0
   43.7637  -51.1077   66.0721 O   0  0  0  0  0
   44.1083  -50.2965   63.6566 O   0  0  0  0  0
   41.9866  -48.1225   62.9463 H   0  0  0  0  0
   43.8347  -46.6654   64.7891 O   0  0  0  0  0
   45.2275  -45.3292   62.5407 C   0  0  0  0  0
   45.6366  -44.2706   61.5056 C   0  0  0  0  0
   45.2572  -44.7993   59.8494 Cl  0  0  0  0  0
   46.7120  -44.0631   61.5531 H   0  0  0  0  0
   45.0972  -43.3361   61.6828 H   0  0  0  0  0
   45.5130  -44.9616   63.5366 H   0  0  0  0  0
   45.8137  -46.2456   62.3790 H   0  0  0  0  0
   43.4887  -46.0772   61.5843 H   0  0  0  0  0
   42.9678  -43.7232   62.1451 H   0  0  0  0  0
   40.8528  -45.3459   61.4995 C   0  0  0  0  0
   41.3991  -46.2444   61.1996 H   0  0  0  0  0
   39.7938  -45.6231   61.4874 H   0  0  0  0  0
   41.0168  -44.5775   60.7372 H   0  0  0  0  0
   41.1301  -45.6711   63.5871 H   0  0  0  0  0
   40.9196  -42.7208   63.0144 H   0  0  0  0  0
   41.1355  -43.9217   65.4041 H   0  0  0  0  0
   39.9750  -42.0338   66.4239 H   0  0  0  0  0
   39.2370  -41.6156   64.8885 H   0  0  0  0  0
   41.1693  -40.1568   65.3421 H   0  0  0  0  0
   41.5135  -41.1771   63.9325 H   0  0  0  0  0
  1  2  1  0  0  0
  1  3  1  0  0  0
  1 73  1  0  0  0
  1 74  1  0  0  0
  3  4  1  0  0  0
  3 71  1  0  0  0
  3 72  1  0  0  0
  4  5  1  0  0  0
  4 41  1  0  0  0
  4 70  1  0  0  0
  5  6  1  0  0  0
  5  8  1  0  0  0
  5 69  1  0  0  0
  6  7  1  0  0  0
  8  9  1  0  0  0
  8 64  1  0  0  0
  8 68  1  0  0  0
  9 10  1  0  0  0
  9 12  1  0  0  0
  9 63  1  0  0  0
 10 11  1  0  0  0
 12 13  1  0  0  0
 12 55  1  0  0  0
 12 62  1  0  0  0
 13 14  1  0  0  0
 13 54  2  0  0  0
 14 15  1  0  0  0
 14 17  1  0  0  0
 14 53  1  0  0  0
 15 16  1  0  0  0
 17 18  1  0  0  0
 17 52  2  0  0  0
 18 19  1  0  0  0
 19 20  1  0  0  0
 19 51  2  0  0  0
 20 21  1  0  0  0
 20 23  1  0  0  0
 20 50  1  0  0  0
 21 22  1  0  0  0
 23 24  1  0  0  0
 23 49  2  0  0  0
 24 25  1  0  0  0
 24 30  1  0  0  0
 24 48  1  0  0  0
 25 26  1  0  0  0
 26 27  1  0  0  0
 26 28  1  0  0  0
 26 29  1  0  0  0
 30 31  1  0  0  0
 30 33  1  0  0  0
 30 47  1  0  0  0
 31 32  1  0  0  0
 33 34  1  0  0  0
 33 37  1  0  0  0
 33 46  1  0  0  0
 34 35  1  0  0  0
 34 36  1  0  0  0
 37 38  1  0  0  0
 37 45  2  0  0  0
 38 39  1  0  0  0
 38 41  1  0  0  0
 38 44  1  0  0  0
 39 40  1  0  0  0
 41 42  1  0  0  0
 41 43  1  0  0  0
 55 56  1  0  0  0
 55 60  1  0  0  0
 55 61  1  0  0  0
 56 57  1  0  0  0
 56 58  1  0  0  0
 56 59  1  0  0  0
 64 65  1  0  0  0
 64 66  1  0  0  0
 64 67  1  0  0  0
M  END
> <# Confs.>
25

> <Pharmacophore Match>
(1YET) [A] GDM275

> <Matching Features>
||||HBA:495067246627921590|HBA:495067385280122077|HBA:495067408768422079|HBA:495067414144822081

> <Relative Pharmacophore-Fit Score>
0.50

> <Score>
0.50119025

> <Source Database>
conformers.ldb

> <Active/Decoy>
unknown

> <Mol. Index>
108

$$$$
84
XX    ILIB11212306383D

 70 70  0  0  1  0              1 V2000
   38.7462  -49.2632   67.2813 C   0  0  0  0  0
   37.8837  -50.3105   67.3422 O   0  0  0  0  0
   36.9538  -50.0129   67.4229 H   0  0  0  0  0
   38.3908  -48.0943   67.3156 O   0  0  0  0  0
   40.1639  -49.7474   67.1313 C   0  0  0  0  0
   41.0451  -48.7790   66.3665 C   0  0  0  0  0
   42.0499  -48.2801   66.8752 O   0  0  0  0  0
   40.6354  -48.4557   64.9528 C   0  0  0  0  0
   40.3540  -46.9849   64.7174 C   0  0  0  0  0
   40.4602  -46.1544   65.6217 O   0  0  0  0  0
   39.9361  -46.5792   63.3219 C   0  0  0  0  0
   39.6687  -45.0882   63.1626 C   0  0  0  0  0
   40.8352  -44.1450   63.4477 C   0  0  0  0  0
   41.6853  -43.8733   62.2346 C   0  0  0  0  0
   43.1503  -43.5710   62.4682 C   0  0  0  0  0
   44.0266  -44.7959   62.4413 C   0  0  0  0  0
   45.5127  -44.5836   62.6701 C   0  0  0  0  0
   46.1450  -45.8588   62.6031 O   0  0  0  0  0
   47.4902  -45.8781   62.3744 C   0  0  0  0  0
   48.1530  -44.9833   61.8674 O   0  0  0  0  0
   48.0795  -47.1279   62.9956 C   0  0  0  0  0
   47.8863  -47.1421   64.5147 C   0  0  0  0  0
   47.4449  -48.1118   65.1302 O   0  0  0  0  0
   48.3228  -45.9288   65.2686 C   0  0  0  0  0
   49.7714  -45.8787   65.6833 C   0  0  0  0  0
   50.1820  -47.0354   66.5996 C   0  0  0  0  0
   51.8982  -46.9270   67.0566 Cl  0  0  0  0  0
   50.0257  -48.0024   66.1125 H   0  0  0  0  0
   49.5968  -47.0160   67.5232 H   0  0  0  0  0
   50.3953  -45.8916   64.7783 H   0  0  0  0  0
   49.9980  -44.9193   66.1704 H   0  0  0  0  0
   47.4314  -44.9654   65.5702 C   0  0  0  0  0
   45.9664  -44.9156   65.2328 C   0  0  0  0  0
   45.2821  -44.3788   66.3535 O   0  0  0  0  0
   43.9554  -44.8751   66.4733 C   0  0  0  0  0
   43.3734  -44.6340   65.5782 H   0  0  0  0  0
   43.4852  -44.3930   67.3344 H   0  0  0  0  0
   43.9587  -45.9559   66.6405 H   0  0  0  0  0
   45.8047  -43.9700   64.0368 C   0  0  0  0  0
   45.8601  -42.7453   64.1736 O   0  0  0  0  0
   45.5618  -45.9077   65.0114 H   0  0  0  0  0
   47.8059  -44.1006   66.1205 H   0  0  0  0  0
   47.4975  -48.3735   62.3354 C   0  0  0  0  0
   46.4360  -48.4996   62.5742 H   0  0  0  0  0
   47.5903  -48.3202   61.2466 H   0  0  0  0  0
   48.0192  -49.2737   62.6801 H   0  0  0  0  0
   49.1584  -47.1238   62.8000 H   0  0  0  0  0
   45.8926  -43.9302   61.8762 H   0  0  0  0  0
   43.5605  -45.9190   62.2399 O   0  0  0  0  0
   43.4864  -42.8640   61.7028 H   0  0  0  0  0
   43.2723  -43.0852   63.4416 H   0  0  0  0  0
   41.1926  -43.8639   61.0972 O   0  0  0  0  0
   40.2982  -42.8533   64.0576 C   0  0  0  0  0
   39.5370  -43.0847   65.3565 C   0  0  0  0  0
   40.1807  -43.5260   66.1234 H   0  0  0  0  0
   39.1557  -42.1344   65.7426 H   0  0  0  0  0
   38.6839  -43.7513   65.1962 H   0  0  0  0  0
   41.1195  -42.1519   64.2535 H   0  0  0  0  0
   39.6225  -42.3629   63.3458 H   0  0  0  0  0
   41.4900  -44.6548   64.1778 H   0  0  0  0  0
   38.5713  -44.6671   62.8153 O   0  0  0  0  0
   40.7297  -46.8860   62.6203 H   0  0  0  0  0
   39.0279  -47.1197   63.0334 H   0  0  0  0  0
   41.4332  -48.7864   64.2800 H   0  0  0  0  0
   39.7326  -49.0212   64.6971 H   0  0  0  0  0
   40.7824  -50.1249   68.4733 C   0  0  0  0  0
   40.1732  -50.8796   68.9830 H   0  0  0  0  0
   40.8640  -49.2621   69.1450 H   0  0  0  0  0
   41.7890  -50.5320   68.3356 H   0  0  0  0  0
   40.1149  -50.6677   66.5337 H   0  0  0  0  0
  1  2  1  0  0  0
  1  4  2  0  0  0
  1  5  1  0  0  0
  2  3  1  0  0  0
  5  6  1  0  0  0
  5 66  1  0  0  0
  5 70  1  0  0  0
  6  7  2  0  0  0
  6  8  1  0  0  0
  8  9  1  0  0  0
  8 64  1  0  0  0
  8 65  1  0  0  0
  9 10  2  0  0  0
  9 11  1  0  0  0
 11 12  1  0  0  0
 11 62  1  0  0  0
 11 63  1  0  0  0
 12 13  1  0  0  0
 12 61  2  0  0  0
 13 14  1  0  0  0
 13 53  1  0  0  0
 13 60  1  0  0  0
 14 15  1  0  0  0
 14 52  2  0  0  0
 15 16  1  0  0  0
 15 50  1  0  0  0
 15 51  1  0  0  0
 16 17  1  0  0  0
 16 49  2  0  0  0
 17 18  1  0  0  0
 17 39  1  0  0  0
 17 48  1  0  0  0
 18 19  1  0  0  0
 19 20  2  0  0  0
 19 21  1  0  0  0
 21 22  1  0  0  0
 21 43  1  0  0  0
 21 47  1  0  0  0
 22 23  2  0  0  0
 22 24  1  0  0  0
 24 25  1  0  0  0
 24 32  2  0  0  0
 25 26  1  0  0  0
 25 30  1  0  0  0
 25 31  1  0  0  0
 26 27  1  0  0  0
 26 28  1  0  0  0
 26 29  1  0  0  0
 32 33  1  0  0  0
 32 42  1  0  0  0
 33 34  1  0  0  0
 33 39  1  0  0  0
 33 41  1  0  0  0
 34 35  1  0  0  0
 35 36  1  0  0  0
 35 37  1  0  0  0
 35 38  1  0  0  0
 39 40  2  0  0  0
 43 44  1  0  0  0
 43 45  1  0  0  0
 43 46  1  0  0  0
 53 54  1  0  0  0
 53 58  1  0  0  0
 53 59  1  0  0  0
 54 55  1  0  0  0
 54 56  1  0  0  0
 54 57  1  0  0  0
 66 67  1  0  0  0
 66 68  1  0  0  0
 66 69  1  0  0  0
M  END
> <# Confs.>
25

> <Pharmacophore Match>
(1YET) [A] GDM275

> <Matching Features>
||||HBA:495067246627921590|HBA:495067385280122077|HBA:495067408768422079|HBA:495067414144822081

> <Relative Pharmacophore-Fit Score>
0.49

> <Score>
0.4944425

> <Source Database>
conformers.ldb

> <Active/Decoy>
unknown

> <Mol. Index>
80

$$$$
70
XX    ILIB11212306383D

 73 73  0  0  1  0              1 V2000
   38.1040  -48.7385   63.3314 C   0  0  0  0  0
   36.6912  -49.1396   62.3283 Cl  0  0  0  0  0
   37.7417  -48.8009   64.8072 C   0  0  0  0  0
   38.9138  -48.4755   65.6882 C   0  0  0  0  0
   39.5986  -47.3117   65.6984 C   0  0  0  0  0
   39.4681  -46.1064   64.8728 C   0  0  0  0  0
   38.2529  -45.7674   64.3423 N   0  0  0  0  0
   37.4082  -46.2049   64.6818 H   0  0  0  0  0
   38.1704  -44.9233   63.7887 H   0  0  0  0  0
   40.5931  -45.3699   64.7240 C   0  0  0  0  0
   40.8102  -44.1708   63.9275 C   0  0  0  0  0
   39.8625  -43.9317   62.9586 O   0  0  0  0  0
   40.0671  -43.0994   62.5034 H   0  0  0  0  0
   41.9186  -43.4251   64.1057 C   0  0  0  0  0
   42.3846  -42.2422   63.2944 C   0  0  0  0  0
   42.3118  -41.0346   64.1317 N   0  0  0  0  0
   43.0516  -41.0622   64.8323 H   0  0  0  0  0
   42.5104  -40.2170   63.5594 H   0  0  0  0  0
   43.8268  -42.4015   62.7369 C   0  0  0  0  0
   44.7484  -42.5860   63.8115 O   0  0  0  0  0
   45.6455  -42.4775   63.4572 H   0  0  0  0  0
   43.9888  -43.4947   61.6504 C   0  0  0  0  0
   43.6843  -44.9223   62.0838 C   0  0  0  0  0
   44.3847  -45.2491   63.2101 O   0  0  0  0  0
   44.2767  -46.5262   63.6884 C   0  0  0  0  0
   45.0130  -46.6254   65.0156 C   0  0  0  0  0
   44.7404  -47.9570   65.7304 C   0  0  0  0  0
   43.3977  -48.0952   66.4282 C   0  0  0  0  0
   43.4210  -47.1939   67.5156 O   0  0  0  0  0
   42.4999  -47.0304   67.7804 H   0  0  0  0  0
   43.0818  -49.4910   66.9453 C   0  0  0  0  0
   42.7477  -50.5471   65.9044 C   0  0  0  0  0
   42.8240  -51.8363   66.4712 O   0  0  0  0  0
   43.7642  -52.0406   66.6143 H   0  0  0  0  0
   41.3772  -50.3678   65.2754 C   0  0  0  0  0
   40.1410  -50.7727   66.0798 C   0  0  0  0  0
   39.3468  -51.6413   65.2108 N   0  0  0  0  0
   39.0759  -51.1419   64.3665 H   0  0  0  0  0
   38.4794  -51.8923   65.6834 H   0  0  0  0  0
   39.3757  -49.5674   66.6734 C   0  0  0  0  0
   38.2646  -50.0544   67.4323 O   0  0  0  0  0
   37.8172  -49.2868   67.8286 H   0  0  0  0  0
   40.0465  -49.1181   67.4176 H   0  0  0  0  0
   40.4536  -51.4073   66.9171 H   0  0  0  0  0
   41.2801  -49.8705   64.1503 O   0  0  0  0  0
   43.4925  -50.5066   65.1029 H   0  0  0  0  0
   43.0925  -49.7547   68.1477 O   0  0  0  0  0
   42.6104  -47.7961   65.7331 H   0  0  0  0  0
   45.5517  -48.8818   65.7137 O   0  0  0  0  0
   46.5084  -46.4059   64.8009 C   0  0  0  0  0
   47.1845  -45.7790   66.0126 C   0  0  0  0  0
   48.2542  -45.6475   65.8228 H   0  0  0  0  0
   46.7606  -44.7962   66.2431 H   0  0  0  0  0
   47.0734  -46.4178   66.8946 H   0  0  0  0  0
   46.6792  -45.7652   63.9259 H   0  0  0  0  0
   47.0007  -47.3621   64.5866 H   0  0  0  0  0
   44.6247  -45.8291   65.6637 H   0  0  0  0  0
   43.6744  -47.4568   63.1677 O   0  0  0  0  0
   42.9256  -45.6520   61.4571 O   0  0  0  0  0
   45.3829  -43.4803   61.0187 C   0  0  0  0  0
   46.1610  -43.7613   61.7355 H   0  0  0  0  0
   45.6215  -42.4871   60.6235 H   0  0  0  0  0
   45.4368  -44.1943   60.1889 H   0  0  0  0  0
   43.2670  -43.2597   60.8558 H   0  0  0  0  0
   44.0978  -41.4460   62.2690 H   0  0  0  0  0
   41.7231  -42.0734   62.4392 H   0  0  0  0  0
   42.5947  -43.7091   64.9138 H   0  0  0  0  0
   41.4936  -45.7023   65.2436 H   0  0  0  0  0
   40.4147  -47.2393   66.4186 H   0  0  0  0  0
   36.9162  -48.1213   65.0116 H   0  0  0  0  0
   37.3876  -49.8181   65.0535 H   0  0  0  0  0
   38.4348  -47.7336   63.0527 H   0  0  0  0  0
   38.9005  -49.4471   63.0843 H   0  0  0  0  0
  1  2  1  0  0  0
  1  3  1  0  0  0
  1 72  1  0  0  0
  1 73  1  0  0  0
  3  4  1  0  0  0
  3 70  1  0  0  0
  3 71  1  0  0  0
  4  5  2  0  0  0
  4 40  1  0  0  0
  5  6  1  0  0  0
  5 69  1  0  0  0
  6  7  1  0  0  0
  6 10  2  0  0  0
  7  8  1  0  0  0
  7  9  1  0  0  0
 10 11  1  0  0  0
 10 68  1  0  0  0
 11 12  1  0  0  0
 11 14  2  0  0  0
 12 13  1  0  0  0
 14 15  1  0  0  0
 14 67  1  0  0  0
 15 16  1  0  0  0
 15 19  1  0  0  0
 15 66  1  0  0  0
 16 17  1  0  0  0
 16 18  1  0  0  0
 19 20  1  0  0  0
 19 22  1  0  0  0
 19 65  1  0  0  0
 20 21  1  0  0  0
 22 23  1  0  0  0
 22 60  1  0  0  0
 22 64  1  0  0  0
 23 24  1  0  0  0
 23 59  2  0  0  0
 24 25  1  0  0  0
 25 26  1  0  0  0
 25 58  2  0  0  0
 26 27  1  0  0  0
 26 50  1  0  0  0
 26 57  1  0  0  0
 27 28  1  0  0  0
 27 49  2  0  0  0
 28 29  1  0  0  0
 28 31  1  0  0  0
 28 48  1  0  0  0
 29 30  1  0  0  0
 31 32  1  0  0  0
 31 47  2  0  0  0
 32 33  1  0  0  0
 32 35  1  0  0  0
 32 46  1  0  0  0
 33 34  1  0  0  0
 35 36  1  0  0  0
 35 45  2  0  0  0
 36 37  1  0  0  0
 36 40  1  0  0  0
 36 44  1  0  0  0
 37 38  1  0  0  0
 37 39  1  0  0  0
 40 41  1  0  0  0
 40 43  1  0  0  0
 41 42  1  0  0  0
 50 51  1  0  0  0
 50 55  1  0  0  0
 50 56  1  0  0  0
 51 52  1  0  0  0
 51 53  1  0  0  0
 51 54  1  0  0  0
 60 61  1  0  0  0
 60 62  1  0  0  0
 60 63  1  0  0  0
M  END
> <# Confs.>
25

> <Pharmacophore Match>
(1YET) [A] GDM275

> <Matching Features>
H:495067227192821472|H:495067279551021655|H:495067334351321757||HBA:495067246627921590|HBA:495067385280122077|HBA:495067408768422079|HBA:495067414144822081

> <Relative Pharmacophore-Fit Score>
0.84

> <Score>
0.8357668

> <Source Database>
conformers.ldb

> <Active/Decoy>
unknown

> <Mol. Index>
79

$$$$
92
XX    ILIB11212306383D

 63 63  0  0  1  0              1 V2000
   41.6365  -43.3795   63.5313 C   0  0  0  0  0
   40.5254  -44.4239   63.6428 C   0  0  0  0  0
   39.8495  -44.6912   62.6387 O   0  0  0  0  0
   40.2931  -45.1638   64.9617 C   0  0  0  0  0
   41.3104  -46.2666   65.2140 C   0  0  0  0  0
   42.3515  -46.3920   64.5851 O   0  0  0  0  0
   40.9034  -47.0555   66.2534 O   0  0  0  0  0
   41.7834  -47.9983   66.7109 C   0  0  0  0  0
   42.9754  -48.0803   66.4496 O   0  0  0  0  0
   41.0496  -48.9509   67.6244 C   0  0  0  0  0
   41.9503  -49.9065   68.1468 O   0  0  0  0  0
   42.4947  -49.4606   68.8179 H   0  0  0  0  0
   39.9365  -49.7317   66.9526 C   0  0  0  0  0
   38.7785  -49.6514   67.3658 O   0  0  0  0  0
   40.2992  -50.6041   65.7526 C   0  0  0  0  0
   39.2926  -51.5735   65.5127 O   0  0  0  0  0
   39.0850  -52.4499   66.6116 C   0  0  0  0  0
   39.7348  -52.2332   67.4650 H   0  0  0  0  0
   39.2630  -53.4757   66.2763 H   0  0  0  0  0
   38.0433  -52.3650   66.9288 H   0  0  0  0  0
   40.3539  -49.8127   64.4568 C   0  0  0  0  0
   39.3923  -49.1364   64.0931 O   0  0  0  0  0
   41.6162  -49.9512   63.6299 C   0  0  0  0  0
   41.8625  -48.8911   62.5698 C   0  0  0  0  0
   40.9841  -48.1131   62.1994 O   0  0  0  0  0
   43.2685  -48.8399   61.9771 C   0  0  0  0  0
   43.5182  -47.5892   61.1358 C   0  0  0  0  0
   42.9612  -47.4339   60.0474 O   0  0  0  0  0
   44.4916  -46.5546   61.7017 C   0  0  0  0  0
   45.8340  -47.0095   61.3453 N   0  0  0  0  0
   45.9293  -47.0677   60.3325 H   0  0  0  0  0
   45.9967  -47.9474   61.7095 H   0  0  0  0  0
   44.2683  -45.1436   61.1320 C   0  0  0  0  0
   42.9474  -44.5071   61.5768 C   0  0  0  0  0
   42.9568  -43.9935   63.0128 C   0  0  0  0  0
   43.9657  -44.0444   63.7150 O   0  0  0  0  0
   42.7474  -43.6402   60.9362 H   0  0  0  0  0
   42.1246  -45.2151   61.4555 H   0  0  0  0  0
   45.1015  -44.4915   61.4232 H   0  0  0  0  0
   44.2748  -45.1833   60.0343 H   0  0  0  0  0
   44.3941  -46.5319   62.7903 H   0  0  0  0  0
   43.5395  -50.0774   61.1292 C   0  0  0  0  0
   44.5095  -50.0073   60.6240 H   0  0  0  0  0
   42.7705  -50.2091   60.3606 H   0  0  0  0  0
   43.5482  -50.9839   61.7426 H   0  0  0  0  0
   43.9744  -48.8242   62.8158 H   0  0  0  0  0
   41.5835  -50.9301   63.1425 H   0  0  0  0  0
   42.4672  -49.9208   64.3187 H   0  0  0  0  0
   41.2611  -51.1011   65.9264 H   0  0  0  0  0
   40.6351  -48.3840   68.4649 H   0  0  0  0  0
   38.8589  -45.7036   64.9897 C   0  0  0  0  0
   38.1374  -44.9155   64.7479 H   0  0  0  0  0
   38.5975  -46.0952   65.9781 H   0  0  0  0  0
   38.7256  -46.5134   64.2654 H   0  0  0  0  0
   40.3806  -44.4462   65.7828 H   0  0  0  0  0
   41.8416  -42.5777   64.8064 C   0  0  0  0  0
   42.3619  -41.1528   64.5635 C   0  0  0  0  0
   43.3358  -41.1616   64.0651 H   0  0  0  0  0
   41.6668  -40.5669   63.9553 H   0  0  0  0  0
   42.4827  -40.6356   65.5211 H   0  0  0  0  0
   42.5441  -43.0870   65.4620 H   0  0  0  0  0
   40.8889  -42.4985   65.3377 H   0  0  0  0  0
   41.3166  -42.6773   62.7495 H   0  0  0  0  0
  1  2  1  0  0  0
  1 35  1  0  0  0
  1 56  1  0  0  0
  1 63  1  0  0  0
  2  3  2  0  0  0
  2  4  1  0  0  0
  4  5  1  0  0  0
  4 51  1  0  0  0
  4 55  1  0  0  0
  5  6  2  0  0  0
  5  7  1  0  0  0
  7  8  1  0  0  0
  8  9  2  0  0  0
  8 10  1  0  0  0
 10 11  1  0  0  0
 10 13  1  0  0  0
 10 50  1  0  0  0
 11 12  1  0  0  0
 13 14  2  0  0  0
 13 15  1  0  0  0
 15 16  1  0  0  0
 15 21  1  0  0  0
 15 49  1  0  0  0
 16 17  1  0  0  0
 17 18  1  0  0  0
 17 19  1  0  0  0
 17 20  1  0  0  0
 21 22  2  0  0  0
 21 23  1  0  0  0
 23 24  1  0  0  0
 23 47  1  0  0  0
 23 48  1  0  0  0
 24 25  2  0  0  0
 24 26  1  0  0  0
 26 27  1  0  0  0
 26 42  1  0  0  0
 26 46  1  0  0  0
 27 28  2  0  0  0
 27 29  1  0  0  0
 29 30  1  0  0  0
 29 33  1  0  0  0
 29 41  1  0  0  0
 30 31  1  0  0  0
 30 32  1  0  0  0
 33 34  1  0  0  0
 33 39  1  0  0  0
 33 40  1  0  0  0
 34 35  1  0  0  0
 34 37  1  0  0  0
 34 38  1  0  0  0
 35 36  2  0  0  0
 42 43  1  0  0  0
 42 44  1  0  0  0
 42 45  1  0  0  0
 51 52  1  0  0  0
 51 53  1  0  0  0
 51 54  1  0  0  0
 56 57  1  0  0  0
 56 61  1  0  0  0
 56 62  1  0  0  0
 57 58  1  0  0  0
 57 59  1  0  0  0
 57 60  1  0  0  0
M  END
> <# Confs.>
25

> <Pharmacophore Match>
(1YET) [A] GDM275

> <Matching Features>
|H:495067279551021655|||HBA:495067246627921590|HBA:495067385280122077|HBA:495067408768422079|HBA:495067414144822081

> <Relative Pharmacophore-Fit Score>
0.61

> <Score>
0.6088798

> <Source Database>
conformers.ldb

> <Active/Decoy>
unknown

> <Mol. Index>
104

$$$$
108
XX    ILIB11212306383D

 74 74  0  0  1  0              1 V2000
   44.4119  -50.5059   66.2198 C   0  0  0  0  0
   44.7204  -52.2313   66.5226 Cl  0  0  0  0  0
   44.2352  -50.2514   64.7333 C   0  0  0  0  0
   43.9604  -48.8006   64.3039 C   0  0  0  0  0
   42.6589  -48.2053   64.9262 C   0  0  0  0  0
   42.6401  -48.5254   66.3205 O   0  0  0  0  0
   43.3886  -48.0735   66.7438 H   0  0  0  0  0
   41.3032  -48.6829   64.3085 C   0  0  0  0  0
   40.0613  -47.8435   64.7488 C   0  0  0  0  0
   40.2256  -46.4690   64.2798 O   0  0  0  0  0
   39.1671  -45.8488   63.6850 C   0  0  0  0  0
   39.5173  -44.4042   63.4142 C   0  0  0  0  0
   38.4333  -43.7618   62.7739 O   0  0  0  0  0
   38.2684  -44.2154   61.9301 H   0  0  0  0  0
   40.7273  -44.1939   62.5244 C   0  0  0  0  0
   41.7464  -43.1485   62.9714 C   0  0  0  0  0
   42.2684  -42.5691   61.7881 O   0  0  0  0  0
   41.2769  -41.9431   60.9847 C   0  0  0  0  0
   40.2713  -42.0111   61.4124 H   0  0  0  0  0
   41.2800  -42.4159   59.9980 H   0  0  0  0  0
   41.5417  -40.8909   60.8660 H   0  0  0  0  0
   42.8469  -43.7639   63.8639 C   0  0  0  0  0
   42.2394  -44.2263   65.0740 O   0  0  0  0  0
   41.8220  -43.4600   65.5025 H   0  0  0  0  0
   43.6472  -44.9305   63.2385 C   0  0  0  0  0
   44.3675  -44.5274   62.0336 N   0  0  0  0  0
   44.9513  -43.7158   62.2357 H   0  0  0  0  0
   43.7033  -44.2209   61.3246 H   0  0  0  0  0
   44.7092  -45.4889   64.1937 C   0  0  0  0  0
   45.4493  -46.7461   63.7557 C   0  0  0  0  0
   46.8298  -46.3921   63.8446 O   0  0  0  0  0
   47.0033  -45.7182   63.1657 H   0  0  0  0  0
   45.2153  -47.9545   64.6699 C   0  0  0  0  0
   45.1856  -47.6427   65.7204 H   0  0  0  0  0
   46.1082  -48.5912   64.5914 H   0  0  0  0  0
   45.2387  -46.9961   62.7114 H   0  0  0  0  0
   44.9794  -44.9425   65.2655 O   0  0  0  0  0
   42.9732  -45.7604   63.0084 H   0  0  0  0  0
   43.5534  -42.9757   64.1501 H   0  0  0  0  0
   41.1878  -42.3792   63.5211 H   0  0  0  0  0
   40.8553  -44.8207   61.4709 O   0  0  0  0  0
   39.6602  -43.9146   64.3817 H   0  0  0  0  0
   38.0782  -46.3498   63.4383 O   0  0  0  0  0
   39.7283  -47.8521   66.2403 C   0  0  0  0  0
   39.4511  -49.2644   66.6954 C   0  0  0  0  0
   39.7776  -49.6372   68.1287 C   0  0  0  0  0
   41.1105  -50.1107   68.1868 O   0  0  0  0  0
   41.1715  -50.9117   67.6381 H   0  0  0  0  0
   38.8762  -50.6915   68.7078 C   0  0  0  0  0
   37.5767  -50.3051   68.7198 O   0  0  0  0  0
   36.9945  -50.9900   69.1134 H   0  0  0  0  0
   39.2670  -51.7602   69.1573 O   0  0  0  0  0
   39.7290  -48.7352   68.7464 H   0  0  0  0  0
   38.9099  -50.0843   65.9506 O   0  0  0  0  0
   38.5671  -46.9303   66.6644 C   0  0  0  0  0
   37.1946  -47.2204   66.0348 C   0  0  0  0  0
   35.9773  -46.0748   66.6426 Cl  0  0  0  0  0
   37.2294  -47.1208   64.9459 H   0  0  0  0  0
   36.8539  -48.2311   66.2804 H   0  0  0  0  0
   38.4747  -46.9593   67.7590 H   0  0  0  0  0
   38.8453  -45.8972   66.4171 H   0  0  0  0  0
   40.6282  -47.5249   66.7926 H   0  0  0  0  0
   39.2056  -48.2902   64.2247 H   0  0  0  0  0
   41.3482  -48.6966   62.7715 C   0  0  0  0  0
   41.6776  -47.7351   62.3658 H   0  0  0  0  0
   40.3593  -48.9160   62.3544 H   0  0  0  0  0
   42.0165  -49.4753   62.3960 H   0  0  0  0  0
   41.1028  -49.6968   64.6568 H   0  0  0  0  0
   42.6919  -47.1170   64.8535 H   0  0  0  0  0
   43.8899  -48.7850   63.2118 H   0  0  0  0  0
   45.1215  -50.6226   64.2015 H   0  0  0  0  0
   43.3982  -50.8739   64.3882 H   0  0  0  0  0
   45.2595  -49.9415   66.6203 H   0  0  0  0  0
   43.5131  -50.2248   66.7771 H   0  0  0  0  0
  1  2  1  0  0  0
  1  3  1  0  0  0
  1 73  1  0  0  0
  1 74  1  0  0  0
  3  4  1  0  0  0
  3 71  1  0  0  0
  3 72  1  0  0  0
  4  5  1  0  0  0
  4 33  1  0  0  0
  4 70  1  0  0  0
  5  6  1  0  0  0
  5  8  1  0  0  0
  5 69  1  0  0  0
  6  7  1  0  0  0
  8  9  1  0  0  0
  8 64  1  0  0  0
  8 68  1  0  0  0
  9 10  1  0  0  0
  9 44  1  0  0  0
  9 63  1  0  0  0
 10 11  1  0  0  0
 11 12  1  0  0  0
 11 43  2  0  0  0
 12 13  1  0  0  0
 12 15  1  0  0  0
 12 42  1  0  0  0
 13 14  1  0  0  0
 15 16  1  0  0  0
 15 41  2  0  0  0
 16 17  1  0  0  0
 16 22  1  0  0  0
 16 40  1  0  0  0
 17 18  1  0  0  0
 18 19  1  0  0  0
 18 20  1  0  0  0
 18 21  1  0  0  0
 22 23  1  0  0  0
 22 25  1  0  0  0
 22 39  1  0  0  0
 23 24  1  0  0  0
 25 26  1  0  0  0
 25 29  1  0  0  0
 25 38  1  0  0  0
 26 27  1  0  0  0
 26 28  1  0  0  0
 29 30  1  0  0  0
 29 37  2  0  0  0
 30 31  1  0  0  0
 30 33  1  0  0  0
 30 36  1  0  0  0
 31 32  1  0  0  0
 33 34  1  0  0  0
 33 35  1  0  0  0
 44 45  1  0  0  0
 44 55  1  0  0  0
 44 62  1  0  0  0
 45 46  1  0  0  0
 45 54  2  0  0  0
 46 47  1  0  0  0
 46 49  1  0  0  0
 46 53  1  0  0  0
 47 48  1  0  0  0
 49 50  1  0  0  0
 49 52  2  0  0  0
 50 51  1  0  0  0
 55 56  1  0  0  0
 55 60  1  0  0  0
 55 61  1  0  0  0
 56 57  1  0  0  0
 56 58  1  0  0  0
 56 59  1  0  0  0
 64 65  1  0  0  0
 64 66  1  0  0  0
 64 67  1  0  0  0
M  END
> <# Confs.>
25

> <Pharmacophore Match>
(1YET) [A] GDM275

> <Matching Features>
||||HBA:495067246627921590|HBA:495067385280122077|HBA:495067408768422079|HBA:495067414144822081

> <Relative Pharmacophore-Fit Score>
0.50

> <Score>
0.4991985

> <Source Database>
conformers.ldb

> <Active/Decoy>
unknown

> <Mol. Index>
105

$$$$
