6
XX    ILIB11302300363D

 47 46  0  0  1  0              1 V2000
   43.7858  -43.4175   63.2830 C   0  0  0  0  0
   45.0742  -43.1413   63.6147 O   0  0  0  0  0
   45.5512  -43.8825   64.0453 H   0  0  0  0  0
   43.0553  -42.6124   62.7215 O   0  0  0  0  0
   43.3975  -44.8245   63.6465 C   0  0  0  0  0
   44.2328  -45.7334   62.9637 O   0  0  0  0  0
   44.1994  -46.5796   63.4404 H   0  0  0  0  0
   41.9592  -45.1768   63.3165 C   0  0  0  0  0
   41.6832  -46.0940   62.5426 O   0  0  0  0  0
   40.8790  -44.3609   63.9925 C   0  0  0  0  0
   40.1306  -43.7402   62.9635 O   0  0  0  0  0
   39.5774  -42.4932   63.3641 C   0  0  0  0  0
   38.9202  -42.6189   64.2294 H   0  0  0  0  0
   38.9904  -42.0960   62.5338 H   0  0  0  0  0
   40.3744  -41.7810   63.5979 H   0  0  0  0  0
   39.9535  -45.1772   64.8755 C   0  0  0  0  0
   38.7418  -45.2337   64.6589 O   0  0  0  0  0
   40.5797  -45.9537   66.0077 C   0  0  0  0  0
   41.2464  -44.9836   66.8959 N   0  0  0  0  0
   41.7016  -45.4768   67.6632 H   0  0  0  0  0
   40.5516  -44.3710   67.3213 H   0  0  0  0  0
   39.5819  -46.7581   66.8037 C   0  0  0  0  0
   39.0151  -46.2786   67.7966 O   0  0  0  0  0
   39.3186  -48.1696   66.3518 C   0  0  0  0  0
   38.3670  -48.7691   67.2053 O   0  0  0  0  0
   37.9716  -49.5162   66.7255 H   0  0  0  0  0
   40.5474  -49.0590   66.3288 C   0  0  0  0  0
   40.5750  -50.1675   65.2992 C   0  0  0  0  0
   41.1874  -49.6426   64.0800 N   0  0  0  0  0
   41.1970  -50.3666   63.3623 H   0  0  0  0  0
   42.1619  -49.4011   64.2558 H   0  0  0  0  0
   41.3505  -51.3847   65.7640 C   0  0  0  0  0
   40.5739  -52.4548   66.5007 C   0  0  0  0  0
   39.5521  -52.9520   65.6639 O   0  0  0  0  0
   39.2928  -53.8254   66.0041 H   0  0  0  0  0
   39.9373  -51.9832   67.7792 C   0  0  0  0  0
   40.8552  -51.5204   68.6675 O   0  0  0  0  0
   41.7836  -51.5707   68.3554 H   0  0  0  0  0
   38.7336  -51.9751   67.9995 O   0  0  0  0  0
   41.2704  -53.2684   66.7354 H   0  0  0  0  0
   42.5616  -51.4935   65.5613 O   0  0  0  0  0
   39.5493  -50.4634   65.0585 H   0  0  0  0  0
   41.4757  -48.8936   67.1214 O   0  0  0  0  0
   38.9046  -48.1169   65.3386 H   0  0  0  0  0
   41.3584  -46.6168   65.6165 H   0  0  0  0  0
   41.3835  -43.6083   64.6127 H   0  0  0  0  0
   43.5483  -44.9432   64.7256 H   0  0  0  0  0
  1  2  1  0  0  0
  1  4  2  0  0  0
  1  5  1  0  0  0
  2  3  1  0  0  0
  5  6  1  0  0  0
  5  8  1  0  0  0
  5 47  1  0  0  0
  6  7  1  0  0  0
  8  9  2  0  0  0
  8 10  1  0  0  0
 10 11  1  0  0  0
 10 16  1  0  0  0
 10 46  1  0  0  0
 11 12  1  0  0  0
 12 13  1  0  0  0
 12 14  1  0  0  0
 12 15  1  0  0  0
 16 17  2  0  0  0
 16 18  1  0  0  0
 18 19  1  0  0  0
 18 22  1  0  0  0
 18 45  1  0  0  0
 19 20  1  0  0  0
 19 21  1  0  0  0
 22 23  2  0  0  0
 22 24  1  0  0  0
 24 25  1  0  0  0
 24 27  1  0  0  0
 24 44  1  0  0  0
 25 26  1  0  0  0
 27 28  1  0  0  0
 27 43  2  0  0  0
 28 29  1  0  0  0
 28 32  1  0  0  0
 28 42  1  0  0  0
 29 30  1  0  0  0
 29 31  1  0  0  0
 32 33  1  0  0  0
 32 41  2  0  0  0
 33 34  1  0  0  0
 33 36  1  0  0  0
 33 40  1  0  0  0
 34 35  1  0  0  0
 36 37  1  0  0  0
 36 39  2  0  0  0
 37 38  1  0  0  0
M  END
> <# Confs.>
25

> <Pharmacophore Match>
(1YET) [A] GDM275

> <Matching Features>
||||HBA:495067246627921590|HBA:495067385280122077|HBA:495067408768422079|HBA:495067414144822081

> <Relative Pharmacophore-Fit Score>
0.50

> <Score>
0.50138843

> <Source Database>
conformers.ldb

> <Active/Decoy>
unknown

> <Mol. Index>
1

$$$$
14
XX    ILIB11302300363D

 68 68  0  0  1  0              1 V2000
   44.1863  -48.7362   64.4900 C   0  0  0  0  0
   44.2003  -50.0984   64.5660 O   0  0  0  0  0
   45.0069  -50.4774   64.1550 H   0  0  0  0  0
   45.0642  -48.0838   63.9586 O   0  0  0  0  0
   42.9599  -48.1781   65.1405 C   0  0  0  0  0
   42.9405  -46.7519   65.0585 O   0  0  0  0  0
   42.1587  -46.1768   64.0920 C   0  0  0  0  0
   42.2516  -44.6650   64.1520 C   0  0  0  0  0
   43.4269  -44.2578   64.8280 O   0  0  0  0  0
   43.3704  -44.5829   65.7431 H   0  0  0  0  0
   41.0533  -43.9804   64.7991 C   0  0  0  0  0
   39.6777  -44.1213   64.1486 C   0  0  0  0  0
   39.7754  -44.2799   62.7421 O   0  0  0  0  0
   39.7514  -43.0364   62.0521 C   0  0  0  0  0
   39.8454  -43.2367   60.9816 H   0  0  0  0  0
   38.8019  -42.5233   62.2279 H   0  0  0  0  0
   40.5868  -42.4006   62.3601 H   0  0  0  0  0
   38.8767  -45.2935   64.6957 C   0  0  0  0  0
   37.4910  -45.5178   64.1253 C   0  0  0  0  0
   37.0745  -46.9715   64.1322 C   0  0  0  0  0
   37.4597  -47.8036   62.9247 C   0  0  0  0  0
   36.2814  -47.8280   62.1376 O   0  0  0  0  0
   36.5568  -47.9316   60.7469 C   0  0  0  0  0
   35.6052  -47.9591   60.2086 H   0  0  0  0  0
   37.1235  -47.0602   60.4059 H   0  0  0  0  0
   37.1082  -48.8496   60.5251 H   0  0  0  0  0
   37.9217  -49.2082   63.3001 C   0  0  0  0  0
   39.2981  -49.3066   63.9205 C   0  0  0  0  0
   39.5974  -50.5777   64.6767 C   0  0  0  0  0
   38.7126  -50.9669   65.8467 C   0  0  0  0  0
   38.6082  -49.9375   66.9787 C   0  0  0  0  0
   37.3035  -50.1298   67.5475 O   0  0  0  0  0
   37.2114  -49.4937   68.2769 H   0  0  0  0  0
   39.6681  -50.1233   68.0926 C   0  0  0  0  0
   39.3116  -49.2616   69.2312 N   0  0  0  0  0
   39.3465  -48.2831   68.9466 H   0  0  0  0  0
   40.0028  -49.3675   69.9715 H   0  0  0  0  0
   41.1310  -49.8901   67.6375 C   0  0  0  0  0
   42.0025  -50.3821   68.6648 O   0  0  0  0  0
   41.9644  -49.7574   69.4081 H   0  0  0  0  0
   41.5117  -48.4346   67.2940 C   0  0  0  0  0
   41.5450  -47.6483   68.4740 O   0  0  0  0  0
   41.2114  -46.2880   68.2306 C   0  0  0  0  0
   41.2445  -45.7508   69.1822 H   0  0  0  0  0
   41.9388  -45.8342   67.5508 H   0  0  0  0  0
   40.2037  -46.2001   67.8156 H   0  0  0  0  0
   42.8996  -48.4019   66.6525 C   0  0  0  0  0
   43.9212  -48.5036   67.3333 O   0  0  0  0  0
   40.7835  -48.0149   66.5934 H   0  0  0  0  0
   41.3340  -50.5245   66.7703 H   0  0  0  0  0
   39.5855  -51.1485   68.4762 H   0  0  0  0  0
   38.6294  -48.9148   66.5922 H   0  0  0  0  0
   37.7194  -51.1839   65.4357 H   0  0  0  0  0
   39.0704  -51.9253   66.2427 H   0  0  0  0  0
   40.5412  -51.2967   64.3403 O   0  0  0  0  0
   39.4610  -48.4648   64.5945 H   0  0  0  0  0
   40.0231  -49.2162   63.1035 H   0  0  0  0  0
   37.2365  -50.2021   63.0674 O   0  0  0  0  0
   38.2746  -47.3043   62.3847 H   0  0  0  0  0
   36.4654  -47.4539   65.0879 O   0  0  0  0  0
   36.7764  -44.9383   64.7197 H   0  0  0  0  0
   37.4288  -45.1477   63.0976 H   0  0  0  0  0
   39.2991  -45.9889   65.6196 O   0  0  0  0  0
   39.1028  -43.2172   64.3874 H   0  0  0  0  0
   41.1701  -43.3451   65.8504 O   0  0  0  0  0
   42.3608  -44.2953   63.1278 H   0  0  0  0  0
   41.4556  -46.7734   63.2867 O   0  0  0  0  0
   42.0804  -48.6520   64.6937 H   0  0  0  0  0
  1  2  1  0  0  0
  1  4  2  0  0  0
  1  5  1  0  0  0
  2  3  1  0  0  0
  5  6  1  0  0  0
  5 47  1  0  0  0
  5 68  1  0  0  0
  6  7  1  0  0  0
  7  8  1  0  0  0
  7 67  2  0  0  0
  8  9  1  0  0  0
  8 11  1  0  0  0
  8 66  1  0  0  0
  9 10  1  0  0  0
 11 12  1  0  0  0
 11 65  2  0  0  0
 12 13  1  0  0  0
 12 18  1  0  0  0
 12 64  1  0  0  0
 13 14  1  0  0  0
 14 15  1  0  0  0
 14 16  1  0  0  0
 14 17  1  0  0  0
 18 19  1  0  0  0
 18 63  2  0  0  0
 19 20  1  0  0  0
 19 61  1  0  0  0
 19 62  1  0  0  0
 20 21  1  0  0  0
 20 60  2  0  0  0
 21 22  1  0  0  0
 21 27  1  0  0  0
 21 59  1  0  0  0
 22 23  1  0  0  0
 23 24  1  0  0  0
 23 25  1  0  0  0
 23 26  1  0  0  0
 27 28  1  0  0  0
 27 58  2  0  0  0
 28 29  1  0  0  0
 28 56  1  0  0  0
 28 57  1  0  0  0
 29 30  1  0  0  0
 29 55  2  0  0  0
 30 31  1  0  0  0
 30 53  1  0  0  0
 30 54  1  0  0  0
 31 32  1  0  0  0
 31 34  1  0  0  0
 31 52  1  0  0  0
 32 33  1  0  0  0
 34 35  1  0  0  0
 34 38  1  0  0  0
 34 51  1  0  0  0
 35 36  1  0  0  0
 35 37  1  0  0  0
 38 39  1  0  0  0
 38 41  1  0  0  0
 38 50  1  0  0  0
 39 40  1  0  0  0
 41 42  1  0  0  0
 41 47  1  0  0  0
 41 49  1  0  0  0
 42 43  1  0  0  0
 43 44  1  0  0  0
 43 45  1  0  0  0
 43 46  1  0  0  0
 47 48  2  0  0  0
M  END
> <# Confs.>
25

> <Pharmacophore Match>
(1YET) [A] GDM275

> <Matching Features>
||||HBA:495067246627921590|HBA:495067385280122077|HBA:495067408768422079|HBA:495067414144822081

> <Relative Pharmacophore-Fit Score>
0.49

> <Score>
0.49350488

> <Source Database>
conformers.ldb

> <Active/Decoy>
unknown

> <Mol. Index>
16

$$$$
11
XX    ILIB11302300363D

 40 39  0  0  1  0              1 V2000
   38.9625  -49.7165   68.3509 C   0  0  0  0  0
   39.0651  -50.2359   69.5998 O   0  0  0  0  0
   39.6912  -49.7749   70.1989 H   0  0  0  0  0
   38.2332  -50.1750   67.4840 O   0  0  0  0  0
   39.8359  -48.5398   68.1742 C   0  0  0  0  0
   41.0120  -48.4534   68.8885 O   0  0  0  0  0
   41.0850  -49.2576   69.4283 H   0  0  0  0  0
   39.4583  -47.5826   67.3128 C   0  0  0  0  0
   40.2302  -46.3344   67.0314 C   0  0  0  0  0
   40.5860  -46.2956   65.5686 C   0  0  0  0  0
   41.6420  -46.8111   65.1726 O   0  0  0  0  0
   39.6266  -45.6786   64.5566 C   0  0  0  0  0
   40.3772  -45.0965   63.3787 C   0  0  0  0  0
   39.4660  -44.4968   62.4647 O   0  0  0  0  0
   39.0618  -43.7292   62.8884 H   0  0  0  0  0
   41.5037  -44.0886   63.6976 C   0  0  0  0  0
   42.1688  -43.5872   62.4310 C   0  0  0  0  0
   43.3688  -44.3218   61.8604 C   0  0  0  0  0
   43.3582  -44.1454   60.4592 O   0  0  0  0  0
   42.6746  -44.7321   60.0937 H   0  0  0  0  0
   44.7018  -43.8548   62.3947 C   0  0  0  0  0
   45.7034  -44.0061   61.4879 O   0  0  0  0  0
   45.4313  -44.3980   60.6316 H   0  0  0  0  0
   44.8839  -43.3937   63.5140 O   0  0  0  0  0
   43.2806  -45.3933   62.0712 H   0  0  0  0  0
   41.7455  -42.5725   61.8699 O   0  0  0  0  0
   41.0689  -42.8964   64.5589 C   0  0  0  0  0
   42.2110  -41.9326   64.8468 C   0  0  0  0  0
   42.6465  -41.5534   63.9173 H   0  0  0  0  0
   43.0031  -42.4133   65.4291 H   0  0  0  0  0
   41.8449  -41.0771   65.4224 H   0  0  0  0  0
   40.6445  -43.2454   65.5091 H   0  0  0  0  0
   40.2668  -42.3490   64.0480 H   0  0  0  0  0
   42.2946  -44.6235   64.2433 H   0  0  0  0  0
   40.8405  -45.9342   62.8453 H   0  0  0  0  0
   38.9311  -46.4496   64.2355 H   0  0  0  0  0
   39.0601  -44.9051   65.0929 H   0  0  0  0  0
   41.1591  -46.2746   67.6089 H   0  0  0  0  0
   39.6313  -45.4536   67.2858 H   0  0  0  0  0
   38.5213  -47.6841   66.7684 H   0  0  0  0  0
  1  2  1  0  0  0
  1  4  2  0  0  0
  1  5  1  0  0  0
  2  3  1  0  0  0
  5  6  1  0  0  0
  5  8  2  0  0  0
  6  7  1  0  0  0
  8  9  1  0  0  0
  8 40  1  0  0  0
  9 10  1  0  0  0
  9 38  1  0  0  0
  9 39  1  0  0  0
 10 11  2  0  0  0
 10 12  1  0  0  0
 12 13  1  0  0  0
 12 36  1  0  0  0
 12 37  1  0  0  0
 13 14  1  0  0  0
 13 16  1  0  0  0
 13 35  1  0  0  0
 14 15  1  0  0  0
 16 17  1  0  0  0
 16 27  1  0  0  0
 16 34  1  0  0  0
 17 18  1  0  0  0
 17 26  2  0  0  0
 18 19  1  0  0  0
 18 21  1  0  0  0
 18 25  1  0  0  0
 19 20  1  0  0  0
 21 22  1  0  0  0
 21 24  2  0  0  0
 22 23  1  0  0  0
 27 28  1  0  0  0
 27 32  1  0  0  0
 27 33  1  0  0  0
 28 29  1  0  0  0
 28 30  1  0  0  0
 28 31  1  0  0  0
M  END
> <# Confs.>
25

> <Pharmacophore Match>
(1YET) [A] GDM275

> <Matching Features>
|H:495067279551021655|||HBA:495067246627921590|HBA:495067385280122077|HBA:495067408768422079|HBA:495067414144822081

> <Relative Pharmacophore-Fit Score>
0.61

> <Score>
0.6133362

> <Source Database>
conformers.ldb

> <Active/Decoy>
unknown

> <Mol. Index>
5

$$$$
17
XX    ILIB11302300363D

 45 45  0  0  1  0              1 V2000
   40.6108  -49.2097   67.5203 C   0  0  0  0  0
   41.6423  -49.6980   68.2679 O   0  0  0  0  0
   41.4152  -50.5548   68.6873 H   0  0  0  0  0
   39.5266  -49.7536   67.4349 O   0  0  0  0  0
   40.9776  -47.8945   66.9109 C   0  0  0  0  0
   39.8673  -47.4197   66.1464 O   0  0  0  0  0
   39.0049  -46.5554   66.7748 C   0  0  0  0  0
   37.8255  -46.2683   65.8657 C   0  0  0  0  0
   36.9967  -45.2552   66.4045 O   0  0  0  0  0
   35.9678  -45.7681   67.2417 C   0  0  0  0  0
   35.2889  -46.4099   66.6743 H   0  0  0  0  0
   36.3981  -46.3243   68.0803 H   0  0  0  0  0
   35.3970  -44.9250   67.6404 H   0  0  0  0  0
   38.2278  -45.8014   64.4790 C   0  0  0  0  0
   38.8250  -44.4142   64.3461 C   0  0  0  0  0
   39.5482  -44.1910   63.0359 C   0  0  0  0  0
   40.9366  -44.7933   62.9111 C   0  0  0  0  0
   41.3575  -44.7891   61.5631 O   0  0  0  0  0
   41.3897  -43.8654   61.2611 H   0  0  0  0  0
   42.0019  -44.0577   63.6996 C   0  0  0  0  0
   43.1119  -44.9144   64.2953 C   0  0  0  0  0
   44.2446  -44.1381   64.6374 O   0  0  0  0  0
   45.1811  -44.0269   63.5736 C   0  0  0  0  0
   45.5868  -45.0079   63.3088 H   0  0  0  0  0
   44.7148  -43.5648   62.6986 H   0  0  0  0  0
   46.0046  -43.3904   63.9062 H   0  0  0  0  0
   42.7002  -45.5503   65.6100 C   0  0  0  0  0
   43.2076  -46.9534   65.8833 C   0  0  0  0  0
   43.8623  -46.9556   67.1882 N   0  0  0  0  0
   44.2712  -47.8727   67.3637 H   0  0  0  0  0
   44.6436  -46.3007   67.1801 H   0  0  0  0  0
   42.1159  -48.0063   65.8900 C   0  0  0  0  0
   42.1304  -48.9205   65.0616 O   0  0  0  0  0
   43.9498  -47.2285   65.1270 H   0  0  0  0  0
   41.9956  -44.9416   66.4173 O   0  0  0  0  0
   43.3805  -45.6942   63.5737 H   0  0  0  0  0
   41.9759  -42.8348   63.8364 O   0  0  0  0  0
   40.8827  -45.8349   63.2409 H   0  0  0  0  0
   39.0135  -43.5814   62.1109 O   0  0  0  0  0
   39.5271  -44.2322   65.1646 H   0  0  0  0  0
   38.0178  -43.6790   64.4269 H   0  0  0  0  0
   38.0758  -46.5370   63.5027 O   0  0  0  0  0
   37.2481  -47.1956   65.7498 H   0  0  0  0  0
   39.1288  -46.1082   67.9069 O   0  0  0  0  0
   41.2580  -47.1977   67.7065 H   0  0  0  0  0
  1  2  1  0  0  0
  1  4  2  0  0  0
  1  5  1  0  0  0
  2  3  1  0  0  0
  5  6  1  0  0  0
  5 32  1  0  0  0
  5 45  1  0  0  0
  6  7  1  0  0  0
  7  8  1  0  0  0
  7 44  2  0  0  0
  8  9  1  0  0  0
  8 14  1  0  0  0
  8 43  1  0  0  0
  9 10  1  0  0  0
 10 11  1  0  0  0
 10 12  1  0  0  0
 10 13  1  0  0  0
 14 15  1  0  0  0
 14 42  2  0  0  0
 15 16  1  0  0  0
 15 40  1  0  0  0
 15 41  1  0  0  0
 16 17  1  0  0  0
 16 39  2  0  0  0
 17 18  1  0  0  0
 17 20  1  0  0  0
 17 38  1  0  0  0
 18 19  1  0  0  0
 20 21  1  0  0  0
 20 37  2  0  0  0
 21 22  1  0  0  0
 21 27  1  0  0  0
 21 36  1  0  0  0
 22 23  1  0  0  0
 23 24  1  0  0  0
 23 25  1  0  0  0
 23 26  1  0  0  0
 27 28  1  0  0  0
 27 35  2  0  0  0
 28 29  1  0  0  0
 28 32  1  0  0  0
 28 34  1  0  0  0
 29 30  1  0  0  0
 29 31  1  0  0  0
 32 33  2  0  0  0
M  END
> <# Confs.>
25

> <Pharmacophore Match>
(1YET) [A] GDM275

> <Matching Features>
||||HBA:495067246627921590|HBA:495067385280122077|HBA:495067408768422079|HBA:495067414144822081

> <Relative Pharmacophore-Fit Score>
0.51

> <Score>
0.508185

> <Source Database>
conformers.ldb

> <Active/Decoy>
unknown

> <Mol. Index>
24

$$$$
7
XX    ILIB11302300363D

 39 39  0  0  1  0              1 V2000
   40.7238  -45.3463   64.8578 O   0  0  0  0  0
   39.3254  -45.3711   65.1201 C   0  0  0  0  0
   38.9566  -46.7957   65.4643 C   0  0  0  0  0
   38.1212  -47.4250   64.7961 O   0  0  0  0  0
   39.6089  -47.4124   66.6539 C   0  0  0  0  0
   40.5037  -46.6476   67.3622 O   0  0  0  0  0
   39.9263  -45.8814   68.4234 C   0  0  0  0  0
   40.7317  -45.3208   68.9061 H   0  0  0  0  0
   39.4690  -46.5316   69.1764 H   0  0  0  0  0
   39.1974  -45.1621   68.0362 H   0  0  0  0  0
   39.3744  -48.7078   66.9612 C   0  0  0  0  0
   39.9747  -49.5140   68.0748 C   0  0  0  0  0
   38.9680  -50.0011   68.9444 O   0  0  0  0  0
   39.4133  -50.4008   69.7116 H   0  0  0  0  0
   40.7533  -50.6758   67.5057 C   0  0  0  0  0
   39.9851  -51.7868   67.3535 O   0  0  0  0  0
   39.0513  -51.6880   67.6353 H   0  0  0  0  0
   41.9415  -50.6448   67.2129 O   0  0  0  0  0
   40.6589  -48.8790   68.6479 H   0  0  0  0  0
   38.6885  -49.2848   66.3426 H   0  0  0  0  0
   38.6094  -44.8361   63.8873 C   0  0  0  0  0
   39.0847  -45.2972   62.5302 C   0  0  0  0  0
   40.2029  -44.4449   61.9747 C   0  0  0  0  0
   41.6070  -45.0101   61.9958 C   0  0  0  0  0
   42.6005  -44.1218   62.7177 C   0  0  0  0  0
   42.6946  -44.2469   64.2349 C   0  0  0  0  0
   43.5345  -43.2212   64.7300 O   0  0  0  0  0
   43.1262  -42.3665   64.5111 H   0  0  0  0  0
   41.3624  -44.1424   64.9405 C   0  0  0  0  0
   40.9150  -43.1191   65.4385 O   0  0  0  0  0
   43.1695  -45.2011   64.4834 H   0  0  0  0  0
   43.3024  -43.3312   62.0882 O   0  0  0  0  0
   41.6277  -46.0056   62.4483 H   0  0  0  0  0
   41.9345  -45.1382   60.9571 H   0  0  0  0  0
   39.9829  -43.3040   61.5637 O   0  0  0  0  0
   39.3841  -46.3484   62.5783 H   0  0  0  0  0
   38.2436  -45.2572   61.8290 H   0  0  0  0  0
   37.6646  -44.0460   63.9965 O   0  0  0  0  0
   39.0932  -44.7419   65.9952 H   0  0  0  0  0
  1  2  1  0  0  0
  1 29  1  0  0  0
  2  3  1  0  0  0
  2 21  1  0  0  0
  2 39  1  0  0  0
  3  4  2  0  0  0
  3  5  1  0  0  0
  5  6  1  0  0  0
  5 11  2  0  0  0
  6  7  1  0  0  0
  7  8  1  0  0  0
  7  9  1  0  0  0
  7 10  1  0  0  0
 11 12  1  0  0  0
 11 20  1  0  0  0
 12 13  1  0  0  0
 12 15  1  0  0  0
 12 19  1  0  0  0
 13 14  1  0  0  0
 15 16  1  0  0  0
 15 18  2  0  0  0
 16 17  1  0  0  0
 21 22  1  0  0  0
 21 38  2  0  0  0
 22 23  1  0  0  0
 22 36  1  0  0  0
 22 37  1  0  0  0
 23 24  1  0  0  0
 23 35  2  0  0  0
 24 25  1  0  0  0
 24 33  1  0  0  0
 24 34  1  0  0  0
 25 26  1  0  0  0
 25 32  2  0  0  0
 26 27  1  0  0  0
 26 29  1  0  0  0
 26 31  1  0  0  0
 27 28  1  0  0  0
 29 30  2  0  0  0
M  END
> <# Confs.>
25

> <Pharmacophore Match>
(1YET) [A] GDM275

> <Matching Features>
||||HBA:495067246627921590|HBA:495067385280122077|HBA:495067408768422079|HBA:495067414144822081

> <Relative Pharmacophore-Fit Score>
0.50

> <Score>
0.49891835

> <Source Database>
conformers.ldb

> <Active/Decoy>
unknown

> <Mol. Index>
3

$$$$
5
XX    ILIB11302300363D

 66 66  0  0  1  0              1 V2000
   41.7247  -50.0743   66.7980 C   0  0  0  0  0
   40.3230  -50.2241   67.3624 C   0  0  0  0  0
   39.7709  -49.0922   68.2232 C   0  0  0  0  0
   40.7936  -48.4295   68.9342 O   0  0  0  0  0
   41.1689  -49.0646   69.5682 H   0  0  0  0  0
   38.9883  -48.1745   67.3202 C   0  0  0  0  0
   39.3689  -46.9855   66.8145 C   0  0  0  0  0
   38.3564  -46.2983   65.9506 C   0  0  0  0  0
   39.0057  -45.4642   65.0899 O   0  0  0  0  0
   38.2507  -44.7352   64.2118 C   0  0  0  0  0
   39.1740  -44.0061   63.2557 C   0  0  0  0  0
   38.4059  -43.2758   62.3219 O   0  0  0  0  0
   37.8682  -43.9067   61.8136 H   0  0  0  0  0
   40.1167  -44.9131   62.4675 C   0  0  0  0  0
   41.2380  -44.2339   61.7048 C   0  0  0  0  0
   40.7869  -44.3625   60.3579 O   0  0  0  0  0
   41.2343  -43.2867   59.5268 C   0  0  0  0  0
   40.8425  -43.4502   58.5196 H   0  0  0  0  0
   42.3263  -43.2623   59.4741 H   0  0  0  0  0
   40.8533  -42.3299   59.8955 H   0  0  0  0  0
   42.6269  -44.8775   61.8690 C   0  0  0  0  0
   42.5401  -46.2826   61.6791 O   0  0  0  0  0
   42.1037  -46.4384   60.8246 H   0  0  0  0  0
   43.3562  -44.5261   63.1907 C   0  0  0  0  0
   42.5640  -44.8234   64.3851 N   0  0  0  0  0
   41.7298  -44.2411   64.4010 H   0  0  0  0  0
   43.0939  -44.5677   65.2173 H   0  0  0  0  0
   44.7807  -45.1459   63.2991 C   0  0  0  0  0
   45.5913  -44.2469   64.0731 O   0  0  0  0  0
   45.6433  -43.4070   63.5867 H   0  0  0  0  0
   44.9188  -46.5161   63.9802 C   0  0  0  0  0
   44.5682  -47.6972   63.0966 C   0  0  0  0  0
   43.5557  -48.7191   63.6078 C   0  0  0  0  0
   42.4643  -48.0483   64.2050 O   0  0  0  0  0
   42.0223  -47.5284   63.5129 H   0  0  0  0  0
   44.2020  -49.7170   64.5837 C   0  0  0  0  0
   44.6194  -49.0604   65.7814 O   0  0  0  0  0
   43.8891  -48.4972   66.0860 H   0  0  0  0  0
   43.3486  -50.9443   64.9659 C   0  0  0  0  0
   43.2778  -51.8847   63.8442 N   0  0  0  0  0
   42.7377  -52.7057   64.1158 H   0  0  0  0  0
   42.7833  -51.4613   63.0604 H   0  0  0  0  0
   41.9136  -50.6206   65.3950 C   0  0  0  0  0
   40.9576  -50.7498   64.6283 O   0  0  0  0  0
   43.8223  -51.4708   65.8027 H   0  0  0  0  0
   45.1315  -50.0869   64.1287 H   0  0  0  0  0
   43.1721  -49.2536   62.7304 H   0  0  0  0  0
   45.1296  -47.8626   62.0113 O   0  0  0  0  0
   45.9638  -46.6705   64.2830 H   0  0  0  0  0
   44.3612  -46.5492   64.9199 H   0  0  0  0  0
   45.2381  -45.1851   62.3042 H   0  0  0  0  0
   43.4766  -43.4339   63.1826 H   0  0  0  0  0
   43.2710  -44.5192   61.0559 H   0  0  0  0  0
   41.2738  -43.1630   61.9710 H   0  0  0  0  0
   39.9396  -46.1249   62.4210 O   0  0  0  0  0
   39.7578  -43.2917   63.8443 H   0  0  0  0  0
   37.0300  -44.6516   64.1824 O   0  0  0  0  0
   37.1516  -46.4983   66.0164 O   0  0  0  0  0
   40.5680  -46.3611   66.9862 N   0  0  0  0  0
   40.7427  -45.4704   66.5387 H   0  0  0  0  0
   41.2875  -46.7923   67.5536 H   0  0  0  0  0
   38.0032  -48.5639   67.0689 H   0  0  0  0  0
   39.0906  -49.5232   68.9658 H   0  0  0  0  0
   39.6362  -51.2188   67.1218 O   0  0  0  0  0
   42.4039  -50.5849   67.4858 H   0  0  0  0  0
   41.9805  -49.0142   66.7642 H   0  0  0  0  0
  1  2  1  0  0  0
  1 43  1  0  0  0
  1 65  1  0  0  0
  1 66  1  0  0  0
  2  3  1  0  0  0
  2 64  2  0  0  0
  3  4  1  0  0  0
  3  6  1  0  0  0
  3 63  1  0  0  0
  4  5  1  0  0  0
  6  7  2  0  0  0
  6 62  1  0  0  0
  7  8  1  0  0  0
  7 59  1  0  0  0
  8  9  1  0  0  0
  8 58  2  0  0  0
  9 10  1  0  0  0
 10 11  1  0  0  0
 10 57  2  0  0  0
 11 12  1  0  0  0
 11 14  1  0  0  0
 11 56  1  0  0  0
 12 13  1  0  0  0
 14 15  1  0  0  0
 14 55  2  0  0  0
 15 16  1  0  0  0
 15 21  1  0  0  0
 15 54  1  0  0  0
 16 17  1  0  0  0
 17 18  1  0  0  0
 17 19  1  0  0  0
 17 20  1  0  0  0
 21 22  1  0  0  0
 21 24  1  0  0  0
 21 53  1  0  0  0
 22 23  1  0  0  0
 24 25  1  0  0  0
 24 28  1  0  0  0
 24 52  1  0  0  0
 25 26  1  0  0  0
 25 27  1  0  0  0
 28 29  1  0  0  0
 28 31  1  0  0  0
 28 51  1  0  0  0
 29 30  1  0  0  0
 31 32  1  0  0  0
 31 49  1  0  0  0
 31 50  1  0  0  0
 32 33  1  0  0  0
 32 48  2  0  0  0
 33 34  1  0  0  0
 33 36  1  0  0  0
 33 47  1  0  0  0
 34 35  1  0  0  0
 36 37  1  0  0  0
 36 39  1  0  0  0
 36 46  1  0  0  0
 37 38  1  0  0  0
 39 40  1  0  0  0
 39 43  1  0  0  0
 39 45  1  0  0  0
 40 41  1  0  0  0
 40 42  1  0  0  0
 43 44  2  0  0  0
 59 60  1  0  0  0
 59 61  1  0  0  0
M  END
> <# Confs.>
25

> <Pharmacophore Match>
(1YET) [A] GDM275

> <Matching Features>
||||HBA:495067246627921590|HBA:495067385280122077|HBA:495067408768422079|HBA:495067414144822081

> <Relative Pharmacophore-Fit Score>
0.50

> <Score>
0.49815857

> <Source Database>
conformers.ldb

> <Active/Decoy>
unknown

> <Mol. Index>
9

$$$$
36
XX    ILIB11302300363D

 49 49  0  0  1  0              1 V2000
   41.9339  -47.7708   66.1048 C   0  0  0  0  0
   41.7503  -48.4461   67.4687 C   0  0  0  0  0
   40.3793  -48.3050   68.1408 C   0  0  0  0  0
   39.2716  -49.0198   67.3789 C   0  0  0  0  0
   38.8638  -50.1452   67.6332 O   0  0  0  0  0
   38.8723  -48.2159   66.3501 O   0  0  0  0  0
   37.9888  -48.6996   65.4455 C   0  0  0  0  0
   37.3106  -49.7161   65.5249 O   0  0  0  0  0
   38.0152  -47.8394   64.2266 C   0  0  0  0  0
   37.7625  -48.4040   63.0106 O   0  0  0  0  0
   38.6448  -49.4341   62.6287 C   0  0  0  0  0
   38.3362  -49.8021   61.6459 H   0  0  0  0  0
   38.5974  -50.2717   63.3329 H   0  0  0  0  0
   39.6696  -49.0572   62.5420 H   0  0  0  0  0
   38.2230  -46.5050   64.3520 C   0  0  0  0  0
   38.3312  -45.5399   63.2023 C   0  0  0  0  0
   39.5482  -44.5981   63.3124 C   0  0  0  0  0
   39.5780  -43.7507   62.1621 O   0  0  0  0  0
   38.7267  -43.2826   62.1196 H   0  0  0  0  0
   40.8952  -45.3025   63.4249 C   0  0  0  0  0
   41.2783  -46.1904   62.2717 C   0  0  0  0  0
   41.1448  -45.6636   61.3213 H   0  0  0  0  0
   40.6535  -47.0878   62.2564 H   0  0  0  0  0
   42.3204  -46.5121   62.3005 H   0  0  0  0  0
   41.6534  -45.1074   64.5241 C   0  0  0  0  0
   42.9731  -45.7432   64.8925 C   0  0  0  0  0
   43.9496  -44.7104   65.0558 O   0  0  0  0  0
   43.6041  -44.0583   65.6863 H   0  0  0  0  0
   42.9052  -46.5799   66.1948 C   0  0  0  0  0
   42.4829  -45.7359   67.2701 O   0  0  0  0  0
   43.1747  -45.0676   67.4074 H   0  0  0  0  0
   43.9109  -46.9334   66.4585 H   0  0  0  0  0
   43.3537  -46.3788   64.0917 H   0  0  0  0  0
   41.2659  -44.4254   65.2813 H   0  0  0  0  0
   39.3955  -43.9376   64.1755 H   0  0  0  0  0
   37.4201  -44.9276   63.1792 H   0  0  0  0  0
   38.3528  -46.0574   62.2356 H   0  0  0  0  0
   38.3498  -46.0622   65.3377 H   0  0  0  0  0
   40.4160  -48.7920   69.5887 C   0  0  0  0  0
   41.1589  -48.2346   70.1678 H   0  0  0  0  0
   40.6762  -49.8541   69.6487 H   0  0  0  0  0
   39.4403  -48.6620   70.0690 H   0  0  0  0  0
   40.1374  -47.2345   68.1782 H   0  0  0  0  0
   42.6766  -49.0595   67.9990 O   0  0  0  0  0
   42.3649  -48.8286   65.0911 C   0  0  0  0  0
   41.7080  -49.7038   65.1388 H   0  0  0  0  0
   42.3255  -48.4447   64.0689 H   0  0  0  0  0
   43.3864  -49.1731   65.2875 H   0  0  0  0  0
   40.9619  -47.3842   65.7989 H   0  0  0  0  0
  1  2  1  0  0  0
  1 29  1  0  0  0
  1 45  1  0  0  0
  1 49  1  0  0  0
  2  3  1  0  0  0
  2 44  2  0  0  0
  3  4  1  0  0  0
  3 39  1  0  0  0
  3 43  1  0  0  0
  4  5  2  0  0  0
  4  6  1  0  0  0
  6  7  1  0  0  0
  7  8  2  0  0  0
  7  9  1  0  0  0
  9 10  1  0  0  0
  9 15  2  0  0  0
 10 11  1  0  0  0
 11 12  1  0  0  0
 11 13  1  0  0  0
 11 14  1  0  0  0
 15 16  1  0  0  0
 15 38  1  0  0  0
 16 17  1  0  0  0
 16 36  1  0  0  0
 16 37  1  0  0  0
 17 18  1  0  0  0
 17 20  1  0  0  0
 17 35  1  0  0  0
 18 19  1  0  0  0
 20 21  1  0  0  0
 20 25  2  0  0  0
 21 22  1  0  0  0
 21 23  1  0  0  0
 21 24  1  0  0  0
 25 26  1  0  0  0
 25 34  1  0  0  0
 26 27  1  0  0  0
 26 29  1  0  0  0
 26 33  1  0  0  0
 27 28  1  0  0  0
 29 30  1  0  0  0
 29 32  1  0  0  0
 30 31  1  0  0  0
 39 40  1  0  0  0
 39 41  1  0  0  0
 39 42  1  0  0  0
 45 46  1  0  0  0
 45 47  1  0  0  0
 45 48  1  0  0  0
M  END
> <# Confs.>
25

> <Pharmacophore Match>
(1YET) [A] GDM275

> <Matching Features>
||H:495067334351321757||HBA:495067246627921590|HBA:495067385280122077|HBA:495067408768422079|HBA:495067414144822081

> <Relative Pharmacophore-Fit Score>
0.62

> <Score>
0.61681515

> <Source Database>
conformers.ldb

> <Active/Decoy>
unknown

> <Mol. Index>
40

$$$$
9
XX    ILIB11302300363D

 39 39  0  0  1  0              1 V2000
   43.1597  -48.0832   64.4727 O   0  0  0  0  0
   44.3421  -48.8070   64.7825 C   0  0  0  0  0
   44.7341  -49.2286   63.8525 H   0  0  0  0  0
   44.1374  -49.6359   65.4684 H   0  0  0  0  0
   45.1036  -48.1381   65.1973 H   0  0  0  0  0
   42.5315  -47.5043   65.5365 C   0  0  0  0  0
   42.3286  -46.1806   65.6110 C   0  0  0  0  0
   42.7892  -45.2050   64.5665 C   0  0  0  0  0
   43.5453  -44.1866   65.2011 O   0  0  0  0  0
   43.9041  -43.6109   64.5047 H   0  0  0  0  0
   41.5912  -44.5784   63.8696 C   0  0  0  0  0
   40.7469  -45.5622   63.4352 O   0  0  0  0  0
   39.6632  -45.1951   62.6864 C   0  0  0  0  0
   38.7635  -46.4016   62.5244 C   0  0  0  0  0
   37.7264  -46.1102   61.6100 O   0  0  0  0  0
   37.2070  -45.3705   61.9689 H   0  0  0  0  0
   38.1018  -46.8543   63.8119 C   0  0  0  0  0
   37.6493  -48.2921   63.8876 C   0  0  0  0  0
   38.6716  -49.2161   64.5077 C   0  0  0  0  0
   38.9482  -49.0329   65.9847 C   0  0  0  0  0
   39.9707  -49.9846   66.5697 C   0  0  0  0  0
   41.4348  -49.7394   66.2342 C   0  0  0  0  0
   42.2507  -50.6756   66.9285 O   0  0  0  0  0
   42.1005  -50.5507   67.8774 H   0  0  0  0  0
   41.9364  -48.3606   66.6254 C   0  0  0  0  0
   41.8383  -47.9496   67.7812 O   0  0  0  0  0
   41.5611  -49.9217   65.1645 H   0  0  0  0  0
   39.6126  -50.9437   67.2550 O   0  0  0  0  0
   39.2793  -48.0083   66.1719 H   0  0  0  0  0
   38.0064  -49.1790   66.5263 H   0  0  0  0  0
   39.2311  -50.0799   63.8333 O   0  0  0  0  0
   36.7202  -48.3450   64.4661 H   0  0  0  0  0
   37.4037  -48.6481   62.8815 H   0  0  0  0  0
   37.9561  -46.0933   64.7692 O   0  0  0  0  0
   39.3634  -47.2171   62.1077 H   0  0  0  0  0
   39.4309  -44.0910   62.2137 O   0  0  0  0  0
   41.4482  -43.3726   63.7188 O   0  0  0  0  0
   43.4240  -45.6691   63.8047 H   0  0  0  0  0
   41.7949  -45.7539   66.4578 H   0  0  0  0  0
  1  2  1  0  0  0
  1  6  1  0  0  0
  2  3  1  0  0  0
  2  4  1  0  0  0
  2  5  1  0  0  0
  6  7  2  0  0  0
  6 25  1  0  0  0
  7  8  1  0  0  0
  7 39  1  0  0  0
  8  9  1  0  0  0
  8 11  1  0  0  0
  8 38  1  0  0  0
  9 10  1  0  0  0
 11 12  1  0  0  0
 11 37  2  0  0  0
 12 13  1  0  0  0
 13 14  1  0  0  0
 13 36  2  0  0  0
 14 15  1  0  0  0
 14 17  1  0  0  0
 14 35  1  0  0  0
 15 16  1  0  0  0
 17 18  1  0  0  0
 17 34  2  0  0  0
 18 19  1  0  0  0
 18 32  1  0  0  0
 18 33  1  0  0  0
 19 20  1  0  0  0
 19 31  2  0  0  0
 20 21  1  0  0  0
 20 29  1  0  0  0
 20 30  1  0  0  0
 21 22  1  0  0  0
 21 28  2  0  0  0
 22 23  1  0  0  0
 22 25  1  0  0  0
 22 27  1  0  0  0
 23 24  1  0  0  0
 25 26  2  0  0  0
M  END
> <# Confs.>
25

> <Pharmacophore Match>
(1YET) [A] GDM275

> <Matching Features>
||||HBA:495067246627921590|HBA:495067385280122077|HBA:495067408768422079|HBA:495067414144822081

> <Relative Pharmacophore-Fit Score>
0.49

> <Score>
0.49351138

> <Source Database>
conformers.ldb

> <Active/Decoy>
unknown

> <Mol. Index>
12

$$$$
3
XX    ILIB11302300363D

 66 66  0  0  1  0              1 V2000
   44.4269  -44.3557   65.0273 C   0  0  0  0  0
   45.2278  -45.6012   65.3627 C   0  0  0  0  0
   44.9313  -46.3024   66.6864 C   0  0  0  0  0
   45.3350  -45.4563   67.7492 O   0  0  0  0  0
   46.3027  -45.3655   67.7008 H   0  0  0  0  0
   43.4604  -46.5638   66.7879 C   0  0  0  0  0
   42.8367  -47.6999   66.4315 C   0  0  0  0  0
   41.3459  -47.6252   66.4730 C   0  0  0  0  0
   40.8411  -48.4308   65.4992 O   0  0  0  0  0
   39.4686  -48.2357   65.1055 C   0  0  0  0  0
   38.6204  -49.2988   65.7943 C   0  0  0  0  0
   37.2599  -49.1233   65.4292 O   0  0  0  0  0
   36.3481  -49.5248   66.4437 C   0  0  0  0  0
   36.4453  -50.5939   66.6530 H   0  0  0  0  0
   36.5123  -48.9453   67.3574 H   0  0  0  0  0
   35.3325  -49.3317   66.0880 H   0  0  0  0  0
   39.0835  -50.7012   65.4851 C   0  0  0  0  0
   40.1539  -51.3120   66.3820 C   0  0  0  0  0
   41.4241  -50.9909   65.8729 O   0  0  0  0  0
   41.5572  -51.5180   65.0669 H   0  0  0  0  0
   40.1104  -50.8292   67.8102 C   0  0  0  0  0
   38.9113  -51.1029   68.3846 O   0  0  0  0  0
   38.8651  -50.7759   69.3086 H   0  0  0  0  0
   41.0150  -50.2357   68.3802 O   0  0  0  0  0
   40.0497  -52.4071   66.3831 H   0  0  0  0  0
   38.6585  -51.2921   64.5001 O   0  0  0  0  0
   38.7160  -49.1550   66.8923 H   0  0  0  0  0
   39.3915  -48.3451   63.5451 C   0  0  0  0  0
   38.0973  -47.8577   63.0569 N   0  0  0  0  0
   38.0243  -48.0199   62.0534 H   0  0  0  0  0
   37.3438  -48.3903   63.4878 H   0  0  0  0  0
   40.5217  -47.6260   62.7609 C   0  0  0  0  0
   41.7460  -48.3303   62.9848 O   0  0  0  0  0
   42.4298  -47.9212   62.4285 H   0  0  0  0  0
   40.7112  -46.1413   63.1061 C   0  0  0  0  0
   41.6371  -45.4292   62.1227 C   0  0  0  0  0
   41.9384  -43.9635   62.4061 C   0  0  0  0  0
   40.8577  -43.2577   61.8002 O   0  0  0  0  0
   40.9485  -43.3390   60.8356 H   0  0  0  0  0
   43.2738  -43.4930   61.8105 C   0  0  0  0  0
   43.3808  -42.0754   61.9729 O   0  0  0  0  0
   42.5875  -41.6772   61.5773 H   0  0  0  0  0
   44.5120  -44.1717   62.4311 C   0  0  0  0  0
   45.6714  -43.9703   61.5535 N   0  0  0  0  0
   45.8728  -42.9759   61.4677 H   0  0  0  0  0
   46.4968  -44.4036   61.9661 H   0  0  0  0  0
   44.8933  -43.6052   63.8018 C   0  0  0  0  0
   45.5637  -42.5764   63.9232 O   0  0  0  0  0
   44.3620  -45.2523   62.5179 H   0  0  0  0  0
   43.2622  -43.6760   60.7269 H   0  0  0  0  0
   41.8920  -43.7631   63.4795 H   0  0  0  0  0
   42.0930  -45.9945   61.1286 O   0  0  0  0  0
   41.1618  -46.0336   64.0970 H   0  0  0  0  0
   39.7521  -45.6154   63.0865 H   0  0  0  0  0
   40.3098  -47.7302   61.6884 H   0  0  0  0  0
   39.4716  -49.4121   63.2946 H   0  0  0  0  0
   39.1298  -47.2296   65.3863 H   0  0  0  0  0
   40.7092  -46.8814   67.2043 O   0  0  0  0  0
   43.4048  -48.8432   65.9554 N   0  0  0  0  0
   44.4084  -48.9147   65.8580 H   0  0  0  0  0
   42.8152  -49.6143   65.6681 H   0  0  0  0  0
   42.8713  -45.7118   67.1246 H   0  0  0  0  0
   45.5152  -47.2260   66.7469 H   0  0  0  0  0
   46.0909  -46.0432   64.6040 O   0  0  0  0  0
   43.3790  -44.6283   64.8851 H   0  0  0  0  0
   44.4821  -43.6671   65.8783 H   0  0  0  0  0
  1  2  1  0  0  0
  1 47  1  0  0  0
  1 65  1  0  0  0
  1 66  1  0  0  0
  2  3  1  0  0  0
  2 64  2  0  0  0
  3  4  1  0  0  0
  3  6  1  0  0  0
  3 63  1  0  0  0
  4  5  1  0  0  0
  6  7  2  0  0  0
  6 62  1  0  0  0
  7  8  1  0  0  0
  7 59  1  0  0  0
  8  9  1  0  0  0
  8 58  2  0  0  0
  9 10  1  0  0  0
 10 11  1  0  0  0
 10 28  1  0  0  0
 10 57  1  0  0  0
 11 12  1  0  0  0
 11 17  1  0  0  0
 11 27  1  0  0  0
 12 13  1  0  0  0
 13 14  1  0  0  0
 13 15  1  0  0  0
 13 16  1  0  0  0
 17 18  1  0  0  0
 17 26  2  0  0  0
 18 19  1  0  0  0
 18 21  1  0  0  0
 18 25  1  0  0  0
 19 20  1  0  0  0
 21 22  1  0  0  0
 21 24  2  0  0  0
 22 23  1  0  0  0
 28 29  1  0  0  0
 28 32  1  0  0  0
 28 56  1  0  0  0
 29 30  1  0  0  0
 29 31  1  0  0  0
 32 33  1  0  0  0
 32 35  1  0  0  0
 32 55  1  0  0  0
 33 34  1  0  0  0
 35 36  1  0  0  0
 35 53  1  0  0  0
 35 54  1  0  0  0
 36 37  1  0  0  0
 36 52  2  0  0  0
 37 38  1  0  0  0
 37 40  1  0  0  0
 37 51  1  0  0  0
 38 39  1  0  0  0
 40 41  1  0  0  0
 40 43  1  0  0  0
 40 50  1  0  0  0
 41 42  1  0  0  0
 43 44  1  0  0  0
 43 47  1  0  0  0
 43 49  1  0  0  0
 44 45  1  0  0  0
 44 46  1  0  0  0
 47 48  2  0  0  0
 59 60  1  0  0  0
 59 61  1  0  0  0
M  END
> <# Confs.>
25

> <Pharmacophore Match>
(1YET) [A] GDM275

> <Matching Features>
||||HBA:495067246627921590|HBA:495067385280122077|HBA:495067408768422079|HBA:495067414144822081

> <Relative Pharmacophore-Fit Score>
0.50

> <Score>
0.49933848

> <Source Database>
conformers.ldb

> <Active/Decoy>
unknown

> <Mol. Index>
10

$$$$
45
XX    ILIB11302300363D

 56 56  0  0  1  0              1 V2000
   41.6063  -43.1421   63.4526 C   0  0  0  0  0
   40.3985  -43.4301   62.8993 O   0  0  0  0  0
   40.3075  -44.3427   62.5519 H   0  0  0  0  0
   41.8791  -42.0435   63.9180 O   0  0  0  0  0
   42.5489  -44.3217   63.4173 C   0  0  0  0  0
   43.7660  -43.9214   64.0120 O   0  0  0  0  0
   44.2404  -43.3706   63.3663 H   0  0  0  0  0
   42.0442  -45.5475   64.1349 C   0  0  0  0  0
   41.3784  -46.3896   63.5267 O   0  0  0  0  0
   42.3630  -45.7588   65.5886 C   0  0  0  0  0
   41.8068  -44.6287   66.2660 O   0  0  0  0  0
   42.5269  -44.2703   67.4384 C   0  0  0  0  0
   43.5394  -43.9472   67.1780 H   0  0  0  0  0
   42.5673  -45.1078   68.1416 H   0  0  0  0  0
   42.0074  -43.4372   67.9190 H   0  0  0  0  0
   41.8176  -47.0759   66.1287 C   0  0  0  0  0
   40.3810  -47.0550   65.9820 O   0  0  0  0  0
   39.6225  -46.6472   67.0324 C   0  0  0  0  0
   38.1647  -46.9846   66.7591 C   0  0  0  0  0
   37.9776  -48.4135   66.2498 C   0  0  0  0  0
   38.5696  -49.5484   67.0688 C   0  0  0  0  0
   37.4950  -50.1215   67.7902 O   0  0  0  0  0
   36.8669  -50.4917   67.1554 H   0  0  0  0  0
   39.2789  -50.6222   66.2497 C   0  0  0  0  0
   40.4235  -50.1677   65.3406 C   0  0  0  0  0
   41.5993  -49.5686   66.1077 C   0  0  0  0  0
   42.3251  -48.3794   65.4551 C   0  0  0  0  0
   43.8396  -48.5752   65.5495 C   0  0  0  0  0
   44.4145  -49.8339   64.8968 C   0  0  0  0  0
   44.0687  -49.8803   63.1523 Cl  0  0  0  0  0
   43.9722  -50.7282   65.3434 H   0  0  0  0  0
   45.5001  -49.8856   65.0250 H   0  0  0  0  0
   44.0946  -48.6066   66.6172 H   0  0  0  0  0
   44.3477  -47.6923   65.1410 H   0  0  0  0  0
   42.0390  -48.3738   64.3963 H   0  0  0  0  0
   41.9420  -50.0126   67.2043 O   0  0  0  0  0
   40.9393  -51.3135   64.4748 C   0  0  0  0  0
   40.1271  -51.7671   63.8976 H   0  0  0  0  0
   41.3963  -52.0988   65.0862 H   0  0  0  0  0
   41.6982  -50.9615   63.7684 H   0  0  0  0  0
   40.0056  -49.4048   64.6752 H   0  0  0  0  0
   38.9512  -51.8061   66.3358 O   0  0  0  0  0
   39.2846  -49.1648   67.8002 H   0  0  0  0  0
   37.3241  -48.6375   65.2289 O   0  0  0  0  0
   37.2775  -46.7777   67.9878 C   0  0  0  0  0
   35.7878  -47.0879   67.8241 C   0  0  0  0  0
   35.0443  -46.0749   66.5640 Cl  0  0  0  0  0
   35.2547  -46.8931   68.7595 H   0  0  0  0  0
   35.6291  -48.1360   67.5493 H   0  0  0  0  0
   37.3686  -45.7220   68.2777 H   0  0  0  0  0
   37.6775  -47.3594   68.8285 H   0  0  0  0  0
   37.8336  -46.3082   65.9592 H   0  0  0  0  0
   40.0407  -46.1034   68.0448 O   0  0  0  0  0
   42.0659  -47.1576   67.2091 H   0  0  0  0  0
   43.4644  -45.7348   65.6929 H   0  0  0  0  0
   42.7517  -44.6026   62.3781 H   0  0  0  0  0
  1  2  1  0  0  0
  1  4  2  0  0  0
  1  5  1  0  0  0
  2  3  1  0  0  0
  5  6  1  0  0  0
  5  8  1  0  0  0
  5 56  1  0  0  0
  6  7  1  0  0  0
  8  9  2  0  0  0
  8 10  1  0  0  0
 10 11  1  0  0  0
 10 16  1  0  0  0
 10 55  1  0  0  0
 11 12  1  0  0  0
 12 13  1  0  0  0
 12 14  1  0  0  0
 12 15  1  0  0  0
 16 17  1  0  0  0
 16 27  1  0  0  0
 16 54  1  0  0  0
 17 18  1  0  0  0
 18 19  1  0  0  0
 18 53  2  0  0  0
 19 20  1  0  0  0
 19 45  1  0  0  0
 19 52  1  0  0  0
 20 21  1  0  0  0
 20 44  2  0  0  0
 21 22  1  0  0  0
 21 24  1  0  0  0
 21 43  1  0  0  0
 22 23  1  0  0  0
 24 25  1  0  0  0
 24 42  2  0  0  0
 25 26  1  0  0  0
 25 37  1  0  0  0
 25 41  1  0  0  0
 26 27  1  0  0  0
 26 36  2  0  0  0
 27 28  1  0  0  0
 27 35  1  0  0  0
 28 29  1  0  0  0
 28 33  1  0  0  0
 28 34  1  0  0  0
 29 30  1  0  0  0
 29 31  1  0  0  0
 29 32  1  0  0  0
 37 38  1  0  0  0
 37 39  1  0  0  0
 37 40  1  0  0  0
 45 46  1  0  0  0
 45 50  1  0  0  0
 45 51  1  0  0  0
 46 47  1  0  0  0
 46 48  1  0  0  0
 46 49  1  0  0  0
M  END
> <# Confs.>
25

> <Pharmacophore Match>
(1YET) [A] GDM275

> <Matching Features>
||||HBA:495067246627921590|HBA:495067385280122077|HBA:495067408768422079|HBA:495067414144822081

> <Relative Pharmacophore-Fit Score>
0.50

> <Score>
0.49684587

> <Source Database>
conformers.ldb

> <Active/Decoy>
unknown

> <Mol. Index>
48

$$$$
13
XX    ILIB11302300363D

 68 68  0  0  1  0              1 V2000
   46.4717  -42.6820   63.1476 C   0  0  0  0  0
   47.7954  -42.7424   62.8564 O   0  0  0  0  0
   48.1216  -41.9068   62.4569 H   0  0  0  0  0
   45.7712  -41.7069   62.9189 O   0  0  0  0  0
   45.9980  -43.9760   63.7472 C   0  0  0  0  0
   44.9281  -43.7524   64.6385 O   0  0  0  0  0
   44.2098  -43.3131   64.1519 H   0  0  0  0  0
   45.5718  -45.0053   62.7431 C   0  0  0  0  0
   45.6288  -44.7680   61.5237 O   0  0  0  0  0
   45.0588  -46.3342   63.2303 C   0  0  0  0  0
   45.9340  -47.3102   62.6817 O   0  0  0  0  0
   47.0377  -47.5809   63.5483 C   0  0  0  0  0
   46.6951  -48.0006   64.4986 H   0  0  0  0  0
   47.6186  -46.6707   63.7266 H   0  0  0  0  0
   47.6828  -48.3147   63.0585 H   0  0  0  0  0
   43.6051  -46.6463   62.8158 C   0  0  0  0  0
   42.7941  -45.5766   63.3742 O   0  0  0  0  0
   41.5767  -45.3221   62.8139 C   0  0  0  0  0
   40.8899  -44.2270   63.5940 C   0  0  0  0  0
   41.5437  -43.0073   63.3096 O   0  0  0  0  0
   41.4474  -42.8280   62.3589 H   0  0  0  0  0
   39.4149  -44.0597   63.2710 C   0  0  0  0  0
   38.4233  -44.3418   64.3975 C   0  0  0  0  0
   37.1008  -44.0461   63.9787 O   0  0  0  0  0
   36.7322  -42.7012   64.2484 C   0  0  0  0  0
   37.3709  -42.0021   63.7018 H   0  0  0  0  0
   36.7840  -42.4969   65.3237 H   0  0  0  0  0
   35.7013  -42.5567   63.9191 H   0  0  0  0  0
   38.3757  -45.7950   64.8442 C   0  0  0  0  0
   37.5364  -46.0905   66.0717 C   0  0  0  0  0
   37.7119  -47.4909   66.6186 C   0  0  0  0  0
   38.8179  -47.6966   67.6373 C   0  0  0  0  0
   38.2874  -47.1705   68.8419 O   0  0  0  0  0
   39.2933  -46.6427   69.6982 C   0  0  0  0  0
   39.8130  -45.8076   69.2209 H   0  0  0  0  0
   40.0090  -47.4251   69.9731 H   0  0  0  0  0
   38.8130  -46.2790   70.6071 H   0  0  0  0  0
   39.2217  -49.1579   67.8139 C   0  0  0  0  0
   40.0164  -49.7873   66.6906 C   0  0  0  0  0
   41.4246  -49.2497   66.5541 C   0  0  0  0  0
   42.0937  -49.4237   65.2006 C   0  0  0  0  0
   42.8865  -48.1676   64.8113 C   0  0  0  0  0
   44.1772  -48.2266   65.4150 O   0  0  0  0  0
   44.0510  -48.2901   66.3764 H   0  0  0  0  0
   43.0244  -48.0158   63.2774 C   0  0  0  0  0
   43.7520  -49.1467   62.6974 N   0  0  0  0  0
   43.8517  -49.0110   61.6928 H   0  0  0  0  0
   44.6988  -49.1721   63.0743 H   0  0  0  0  0
   42.0051  -48.0719   62.8765 H   0  0  0  0  0
   42.3909  -47.2784   65.2218 H   0  0  0  0  0
   41.3047  -49.6077   64.4637 H   0  0  0  0  0
   42.7309  -50.3123   65.2581 H   0  0  0  0  0
   42.0177  -48.7440   67.5072 O   0  0  0  0  0
   39.4651  -49.6243   65.7600 H   0  0  0  0  0
   40.0782  -50.8691   66.8573 H   0  0  0  0  0
   38.9271  -49.8022   68.8199 O   0  0  0  0  0
   39.6947  -47.1211   67.3149 H   0  0  0  0  0
   36.9994  -48.4148   66.2269 O   0  0  0  0  0
   37.7864  -45.3726   66.8590 H   0  0  0  0  0
   36.4802  -45.9543   65.8176 H   0  0  0  0  0
   38.9772  -46.6846   64.2427 O   0  0  0  0  0
   38.7060  -43.7309   65.2636 H   0  0  0  0  0
   39.0462  -43.6857   62.1583 O   0  0  0  0  0
   40.9953  -44.4361   64.6637 H   0  0  0  0  0
   41.0985  -45.8883   61.8409 O   0  0  0  0  0
   43.5385  -46.5959   61.7192 H   0  0  0  0  0
   45.1303  -46.3201   64.3254 H   0  0  0  0  0
   46.8310  -44.3969   64.3209 H   0  0  0  0  0
  1  2  1  0  0  0
  1  4  2  0  0  0
  1  5  1  0  0  0
  2  3  1  0  0  0
  5  6  1  0  0  0
  5  8  1  0  0  0
  5 68  1  0  0  0
  6  7  1  0  0  0
  8  9  2  0  0  0
  8 10  1  0  0  0
 10 11  1  0  0  0
 10 16  1  0  0  0
 10 67  1  0  0  0
 11 12  1  0  0  0
 12 13  1  0  0  0
 12 14  1  0  0  0
 12 15  1  0  0  0
 16 17  1  0  0  0
 16 45  1  0  0  0
 16 66  1  0  0  0
 17 18  1  0  0  0
 18 19  1  0  0  0
 18 65  2  0  0  0
 19 20  1  0  0  0
 19 22  1  0  0  0
 19 64  1  0  0  0
 20 21  1  0  0  0
 22 23  1  0  0  0
 22 63  2  0  0  0
 23 24  1  0  0  0
 23 29  1  0  0  0
 23 62  1  0  0  0
 24 25  1  0  0  0
 25 26  1  0  0  0
 25 27  1  0  0  0
 25 28  1  0  0  0
 29 30  1  0  0  0
 29 61  2  0  0  0
 30 31  1  0  0  0
 30 59  1  0  0  0
 30 60  1  0  0  0
 31 32  1  0  0  0
 31 58  2  0  0  0
 32 33  1  0  0  0
 32 38  1  0  0  0
 32 57  1  0  0  0
 33 34  1  0  0  0
 34 35  1  0  0  0
 34 36  1  0  0  0
 34 37  1  0  0  0
 38 39  1  0  0  0
 38 56  2  0  0  0
 39 40  1  0  0  0
 39 54  1  0  0  0
 39 55  1  0  0  0
 40 41  1  0  0  0
 40 53  2  0  0  0
 41 42  1  0  0  0
 41 51  1  0  0  0
 41 52  1  0  0  0
 42 43  1  0  0  0
 42 45  1  0  0  0
 42 50  1  0  0  0
 43 44  1  0  0  0
 45 46  1  0  0  0
 45 49  1  0  0  0
 46 47  1  0  0  0
 46 48  1  0  0  0
M  END
> <# Confs.>
25

> <Pharmacophore Match>
(1YET) [A] GDM275

> <Matching Features>
||||HBA:495067246627921590|HBA:495067385280122077|HBA:495067408768422079|HBA:495067414144822081

> <Relative Pharmacophore-Fit Score>
0.51

> <Score>
0.51344645

> <Source Database>
conformers.ldb

> <Active/Decoy>
unknown

> <Mol. Index>
17

$$$$
34
XX    ILIB11302300363D

 49 49  0  0  1  0              1 V2000
   40.4184  -48.5440   66.5774 C   0  0  0  0  0
   40.9787  -49.7755   67.2334 C   0  0  0  0  0
   41.9437  -49.7060   67.9931 O   0  0  0  0  0
   40.3751  -51.1171   66.8678 C   0  0  0  0  0
   38.9179  -51.1826   67.2292 C   0  0  0  0  0
   38.2496  -52.0102   66.3874 O   0  0  0  0  0
   37.2963  -52.0705   66.6128 H   0  0  0  0  0
   38.3916  -50.5999   68.1661 O   0  0  0  0  0
   41.1444  -52.2388   67.5602 C   0  0  0  0  0
   40.7236  -53.2168   67.3029 H   0  0  0  0  0
   42.1972  -52.2293   67.2601 H   0  0  0  0  0
   41.1103  -52.1390   68.6505 H   0  0  0  0  0
   40.4739  -51.2728   65.7872 H   0  0  0  0  0
   41.4608  -47.8000   65.7357 C   0  0  0  0  0
   41.9283  -48.6612   64.6882 O   0  0  0  0  0
   42.2295  -49.4884   65.1008 H   0  0  0  0  0
   41.0425  -46.4639   65.1212 C   0  0  0  0  0
   42.1701  -45.9669   64.3702 O   0  0  0  0  0
   42.8314  -44.8849   64.8403 C   0  0  0  0  0
   42.9003  -44.5133   66.0022 O   0  0  0  0  0
   43.4536  -44.1518   63.7090 C   0  0  0  0  0
   44.5894  -43.4307   64.0189 O   0  0  0  0  0
   45.6663  -44.2059   64.5370 C   0  0  0  0  0
   46.5397  -43.5516   64.6200 H   0  0  0  0  0
   45.9235  -45.0282   63.8610 H   0  0  0  0  0
   45.4301  -44.5808   65.5374 H   0  0  0  0  0
   42.8753  -44.0484   62.4944 C   0  0  0  0  0
   41.5861  -44.6588   61.9834 C   0  0  0  0  0
   40.3443  -44.4247   62.8739 C   0  0  0  0  0
   39.5023  -43.4344   62.2728 O   0  0  0  0  0
   39.3268  -43.6981   61.3540 H   0  0  0  0  0
   39.5660  -45.7059   63.1576 C   0  0  0  0  0
   38.4076  -46.0182   62.2457 C   0  0  0  0  0
   38.7403  -46.0354   61.2029 H   0  0  0  0  0
   37.9624  -46.9953   62.4599 H   0  0  0  0  0
   37.6195  -45.2673   62.3540 H   0  0  0  0  0
   39.8630  -46.5493   64.1710 C   0  0  0  0  0
   39.2077  -47.4063   64.3200 H   0  0  0  0  0
   40.6175  -43.9724   63.8318 H   0  0  0  0  0
   41.7706  -45.7264   61.8144 H   0  0  0  0  0
   41.4052  -44.2315   60.9871 H   0  0  0  0  0
   43.3949  -43.4420   61.7536 H   0  0  0  0  0
   40.7739  -45.7728   65.9305 H   0  0  0  0  0
   42.3281  -47.6051   66.3700 H   0  0  0  0  0
   39.8153  -47.6134   67.6483 C   0  0  0  0  0
   39.3349  -46.7449   67.1865 H   0  0  0  0  0
   39.0581  -48.1418   68.2377 H   0  0  0  0  0
   40.5779  -47.2494   68.3449 H   0  0  0  0  0
   39.5895  -48.8728   65.9376 H   0  0  0  0  0
  1  2  1  0  0  0
  1 14  1  0  0  0
  1 45  1  0  0  0
  1 49  1  0  0  0
  2  3  2  0  0  0
  2  4  1  0  0  0
  4  5  1  0  0  0
  4  9  1  0  0  0
  4 13  1  0  0  0
  5  6  1  0  0  0
  5  8  2  0  0  0
  6  7  1  0  0  0
  9 10  1  0  0  0
  9 11  1  0  0  0
  9 12  1  0  0  0
 14 15  1  0  0  0
 14 17  1  0  0  0
 14 44  1  0  0  0
 15 16  1  0  0  0
 17 18  1  0  0  0
 17 37  1  0  0  0
 17 43  1  0  0  0
 18 19  1  0  0  0
 19 20  2  0  0  0
 19 21  1  0  0  0
 21 22  1  0  0  0
 21 27  2  0  0  0
 22 23  1  0  0  0
 23 24  1  0  0  0
 23 25  1  0  0  0
 23 26  1  0  0  0
 27 28  1  0  0  0
 27 42  1  0  0  0
 28 29  1  0  0  0
 28 40  1  0  0  0
 28 41  1  0  0  0
 29 30  1  0  0  0
 29 32  1  0  0  0
 29 39  1  0  0  0
 30 31  1  0  0  0
 32 33  1  0  0  0
 32 37  2  0  0  0
 33 34  1  0  0  0
 33 35  1  0  0  0
 33 36  1  0  0  0
 37 38  1  0  0  0
 45 46  1  0  0  0
 45 47  1  0  0  0
 45 48  1  0  0  0
M  END
> <# Confs.>
25

> <Pharmacophore Match>
(1YET) [A] GDM275

> <Matching Features>
||||HBA:495067246627921590|HBA:495067385280122077|HBA:495067408768422079|HBA:495067414144822081

> <Relative Pharmacophore-Fit Score>
0.53

> <Score>
0.5264568

> <Source Database>
conformers.ldb

> <Active/Decoy>
unknown

> <Mol. Index>
28

$$$$
33
XX    ILIB11302300363D

 49 49  0  0  1  0              1 V2000
   40.9770  -44.1055   64.4685 C   0  0  0  0  0
   41.7417  -42.8237   64.4643 C   0  0  0  0  0
   41.4023  -41.8844   65.1864 O   0  0  0  0  0
   42.9169  -42.6892   63.5203 C   0  0  0  0  0
   43.9774  -43.7173   63.7984 C   0  0  0  0  0
   44.6448  -44.0395   62.6623 O   0  0  0  0  0
   45.3477  -44.7047   62.8258 H   0  0  0  0  0
   44.2388  -44.1904   64.8948 O   0  0  0  0  0
   43.5027  -41.2836   63.6145 C   0  0  0  0  0
   44.3467  -41.1658   62.9274 H   0  0  0  0  0
   42.7478  -40.5306   63.3622 H   0  0  0  0  0
   43.8640  -41.0623   64.6251 H   0  0  0  0  0
   42.5600  -42.8259   62.4925 H   0  0  0  0  0
   39.5139  -43.9271   64.0765 C   0  0  0  0  0
   39.4360  -43.3768   62.7500 O   0  0  0  0  0
   39.9917  -42.5719   62.7338 H   0  0  0  0  0
   38.5883  -45.1342   64.1554 C   0  0  0  0  0
   37.2765  -44.7489   63.7421 O   0  0  0  0  0
   37.3500  -44.3292   62.8678 H   0  0  0  0  0
   39.0773  -46.3247   63.3725 C   0  0  0  0  0
   39.3794  -47.5517   63.8431 C   0  0  0  0  0
   39.3056  -47.9804   65.2870 C   0  0  0  0  0
   40.6108  -48.4081   65.7432 O   0  0  0  0  0
   40.7575  -48.9593   66.9776 C   0  0  0  0  0
   41.8465  -49.0030   67.5399 O   0  0  0  0  0
   39.5370  -49.5398   67.5923 C   0  0  0  0  0
   39.5889  -50.0021   68.8916 O   0  0  0  0  0
   39.9414  -49.0218   69.8619 C   0  0  0  0  0
   39.8227  -49.4716   70.8511 H   0  0  0  0  0
   39.2777  -48.1518   69.8041 H   0  0  0  0  0
   40.9884  -48.7216   69.7507 H   0  0  0  0  0
   38.4001  -49.6097   66.8888 C   0  0  0  0  0
   38.2953  -49.1030   65.4906 C   0  0  0  0  0
   38.4771  -49.9387   64.8047 H   0  0  0  0  0
   37.2792  -48.7367   65.3068 H   0  0  0  0  0
   37.5153  -50.0560   67.3325 H   0  0  0  0  0
   39.0352  -47.1009   65.8882 H   0  0  0  0  0
   39.8278  -48.6318   62.8917 C   0  0  0  0  0
   39.8612  -48.2880   61.8528 H   0  0  0  0  0
   40.8324  -48.9754   63.1594 H   0  0  0  0  0
   39.1424  -49.4840   62.9382 H   0  0  0  0  0
   39.1788  -46.1531   62.3007 H   0  0  0  0  0
   38.5029  -45.4393   65.2052 H   0  0  0  0  0
   39.0861  -43.1524   64.7366 H   0  0  0  0  0
   41.0840  -44.7987   65.8422 C   0  0  0  0  0
   40.5895  -45.7753   65.8360 H   0  0  0  0  0
   42.1346  -44.9567   66.1111 H   0  0  0  0  0
   40.6307  -44.1932   66.6344 H   0  0  0  0  0
   41.4616  -44.7763   63.7402 H   0  0  0  0  0
  1  2  1  0  0  0
  1 14  1  0  0  0
  1 45  1  0  0  0
  1 49  1  0  0  0
  2  3  2  0  0  0
  2  4  1  0  0  0
  4  5  1  0  0  0
  4  9  1  0  0  0
  4 13  1  0  0  0
  5  6  1  0  0  0
  5  8  2  0  0  0
  6  7  1  0  0  0
  9 10  1  0  0  0
  9 11  1  0  0  0
  9 12  1  0  0  0
 14 15  1  0  0  0
 14 17  1  0  0  0
 14 44  1  0  0  0
 15 16  1  0  0  0
 17 18  1  0  0  0
 17 20  1  0  0  0
 17 43  1  0  0  0
 18 19  1  0  0  0
 20 21  2  0  0  0
 20 42  1  0  0  0
 21 22  1  0  0  0
 21 38  1  0  0  0
 22 23  1  0  0  0
 22 33  1  0  0  0
 22 37  1  0  0  0
 23 24  1  0  0  0
 24 25  2  0  0  0
 24 26  1  0  0  0
 26 27  1  0  0  0
 26 32  2  0  0  0
 27 28  1  0  0  0
 28 29  1  0  0  0
 28 30  1  0  0  0
 28 31  1  0  0  0
 32 33  1  0  0  0
 32 36  1  0  0  0
 33 34  1  0  0  0
 33 35  1  0  0  0
 38 39  1  0  0  0
 38 40  1  0  0  0
 38 41  1  0  0  0
 45 46  1  0  0  0
 45 47  1  0  0  0
 45 48  1  0  0  0
M  END
> <# Confs.>
25

> <Pharmacophore Match>
(1YET) [A] GDM275

> <Matching Features>
H:495067227192821472|H:495067279551021655||H:495067340233021826|HBA:495067246627921590|HBA:495067385280122077|HBA:495067408768422079|HBA:495067414144822081

> <Relative Pharmacophore-Fit Score>
0.84

> <Score>
0.8379549

> <Source Database>
conformers.ldb

> <Active/Decoy>
unknown

> <Mol. Index>
27

$$$$
18
XX    ILIB11302300363D

 45 45  0  0  1  0              1 V2000
   43.1187  -46.4189   66.7868 C   0  0  0  0  0
   44.4055  -47.0543   67.0520 N   0  0  0  0  0
   44.5232  -47.1860   68.0559 H   0  0  0  0  0
   44.4288  -47.9855   66.6369 H   0  0  0  0  0
   42.0018  -47.2904   67.3296 C   0  0  0  0  0
   42.1835  -48.4613   67.6867 O   0  0  0  0  0
   40.6308  -46.6547   67.4350 C   0  0  0  0  0
   40.6844  -45.8434   68.5825 O   0  0  0  0  0
   39.8613  -44.6880   68.4886 C   0  0  0  0  0
   40.1759  -44.0484   67.6588 H   0  0  0  0  0
   38.8139  -44.9789   68.3646 H   0  0  0  0  0
   39.9590  -44.1225   69.4193 H   0  0  0  0  0
   39.4852  -47.6563   67.5335 C   0  0  0  0  0
   38.8339  -47.7813   68.5712 O   0  0  0  0  0
   39.1752  -48.4902   66.3015 C   0  0  0  0  0
   38.6707  -49.7398   66.7433 O   0  0  0  0  0
   37.8500  -49.5752   67.2383 H   0  0  0  0  0
   38.1478  -47.8605   65.3764 C   0  0  0  0  0
   36.9653  -48.2066   65.3871 O   0  0  0  0  0
   38.6186  -46.7597   64.4515 C   0  0  0  0  0
   38.1731  -45.3691   64.8562 C   0  0  0  0  0
   37.4367  -45.1814   65.8261 O   0  0  0  0  0
   38.7188  -44.1848   64.0658 C   0  0  0  0  0
   39.0393  -44.5942   62.7500 O   0  0  0  0  0
   38.8932  -43.5463   61.8009 C   0  0  0  0  0
   37.8690  -43.1656   61.7931 H   0  0  0  0  0
   39.1245  -43.9462   60.8096 H   0  0  0  0  0
   39.5949  -42.7358   62.0193 H   0  0  0  0  0
   39.9047  -43.5474   64.7684 C   0  0  0  0  0
   39.7990  -42.5609   65.4858 O   0  0  0  0  0
   41.0372  -44.2664   64.5166 O   0  0  0  0  0
   42.2088  -43.8260   65.0677 C   0  0  0  0  0
   42.3828  -42.8015   65.7121 O   0  0  0  0  0
   43.3034  -44.8191   64.7414 C   0  0  0  0  0
   44.5336  -44.3758   65.2711 O   0  0  0  0  0
   44.8267  -43.6170   64.7370 H   0  0  0  0  0
   43.0365  -46.2124   65.2835 C   0  0  0  0  0
   42.7384  -47.1348   64.5230 O   0  0  0  0  0
   43.4109  -44.8786   63.6528 H   0  0  0  0  0
   37.9087  -43.4465   64.0130 H   0  0  0  0  0
   39.7094  -46.7857   64.3874 H   0  0  0  0  0
   38.2213  -46.9825   63.4549 H   0  0  0  0  0
   40.0897  -48.7007   65.7416 H   0  0  0  0  0
   40.4694  -46.0407   66.5308 H   0  0  0  0  0
   43.0819  -45.4557   67.3046 H   0  0  0  0  0
  1  2  1  0  0  0
  1  5  1  0  0  0
  1 37  1  0  0  0
  1 45  1  0  0  0
  2  3  1  0  0  0
  2  4  1  0  0  0
  5  6  2  0  0  0
  5  7  1  0  0  0
  7  8  1  0  0  0
  7 13  1  0  0  0
  7 44  1  0  0  0
  8  9  1  0  0  0
  9 10  1  0  0  0
  9 11  1  0  0  0
  9 12  1  0  0  0
 13 14  2  0  0  0
 13 15  1  0  0  0
 15 16  1  0  0  0
 15 18  1  0  0  0
 15 43  1  0  0  0
 16 17  1  0  0  0
 18 19  2  0  0  0
 18 20  1  0  0  0
 20 21  1  0  0  0
 20 41  1  0  0  0
 20 42  1  0  0  0
 21 22  2  0  0  0
 21 23  1  0  0  0
 23 24  1  0  0  0
 23 29  1  0  0  0
 23 40  1  0  0  0
 24 25  1  0  0  0
 25 26  1  0  0  0
 25 27  1  0  0  0
 25 28  1  0  0  0
 29 30  2  0  0  0
 29 31  1  0  0  0
 31 32  1  0  0  0
 32 33  2  0  0  0
 32 34  1  0  0  0
 34 35  1  0  0  0
 34 37  1  0  0  0
 34 39  1  0  0  0
 35 36  1  0  0  0
 37 38  2  0  0  0
M  END
> <# Confs.>
25

> <Pharmacophore Match>
(1YET) [A] GDM275

> <Matching Features>
||||HBA:495067246627921590|HBA:495067385280122077|HBA:495067408768422079|HBA:495067414144822081

> <Relative Pharmacophore-Fit Score>
0.49

> <Score>
0.4938242

> <Source Database>
conformers.ldb

> <Active/Decoy>
unknown

> <Mol. Index>
21

$$$$
68
XX    ILIB11302300363D

 57 57  0  0  1  0              1 V2000
   40.5875  -46.1671   64.8910 O   0  0  0  0  0
   39.3430  -45.4832   65.1476 C   0  0  0  0  0
   38.2093  -46.5115   65.3720 C   0  0  0  0  0
   36.9563  -45.8006   65.6349 N   0  0  0  0  0
   37.0347  -45.2563   66.4926 H   0  0  0  0  0
   36.2098  -46.4758   65.7952 H   0  0  0  0  0
   38.4984  -47.5185   66.4955 C   0  0  0  0  0
   38.6790  -46.8091   67.7384 O   0  0  0  0  0
   39.4764  -46.2595   67.6572 H   0  0  0  0  0
   39.6235  -48.5381   66.3254 C   0  0  0  0  0
   39.7025  -49.4125   67.5670 C   0  0  0  0  0
   41.0604  -49.9716   67.9631 C   0  0  0  0  0
   41.5316  -50.7777   66.8994 O   0  0  0  0  0
   41.0018  -51.5932   66.8913 H   0  0  0  0  0
   42.1154  -48.9340   68.2270 C   0  0  0  0  0
   41.7416  -48.1118   69.2403 O   0  0  0  0  0
   42.4110  -47.4169   69.4150 H   0  0  0  0  0
   43.1597  -48.8092   67.6045 O   0  0  0  0  0
   40.9577  -50.6086   68.8469 H   0  0  0  0  0
   38.6887  -49.6671   68.2116 O   0  0  0  0  0
   39.4720  -49.3792   65.0516 C   0  0  0  0  0
   38.1911  -50.1983   65.0094 C   0  0  0  0  0
   38.1062  -51.1410   63.5034 Cl  0  0  0  0  0
   37.3078  -49.5542   65.0468 H   0  0  0  0  0
   38.1431  -50.9034   65.8446 H   0  0  0  0  0
   40.3345  -50.0546   64.9711 H   0  0  0  0  0
   39.5479  -48.7378   64.1620 H   0  0  0  0  0
   40.5866  -47.9912   66.2582 H   0  0  0  0  0
   37.5782  -48.1002   66.6391 H   0  0  0  0  0
   38.1002  -47.0857   64.4494 H   0  0  0  0  0
   39.0580  -44.5762   63.9309 C   0  0  0  0  0
   40.2863  -43.8486   63.3534 C   0  0  0  0  0
   39.8624  -43.0782   62.2253 O   0  0  0  0  0
   39.2014  -42.4351   62.5355 H   0  0  0  0  0
   41.0019  -42.9213   64.3383 C   0  0  0  0  0
   42.5080  -42.9655   64.1133 C   0  0  0  0  0
   43.3564  -43.6884   65.1543 C   0  0  0  0  0
   44.5961  -42.9939   65.2614 O   0  0  0  0  0
   45.0593  -43.0614   64.4078 H   0  0  0  0  0
   43.6104  -45.1149   64.7432 C   0  0  0  0  0
   42.8607  -46.1990   65.0357 C   0  0  0  0  0
   41.6003  -45.9709   65.7746 C   0  0  0  0  0
   41.5286  -45.5840   66.9292 O   0  0  0  0  0
   43.0759  -47.5025   64.6378 O   0  0  0  0  0
   44.4438  -47.8446   64.4431 C   0  0  0  0  0
   44.5000  -48.9226   64.2692 H   0  0  0  0  0
   44.8500  -47.3380   63.5612 H   0  0  0  0  0
   45.0397  -47.6132   65.3331 H   0  0  0  0  0
   44.5070  -45.2527   64.1416 H   0  0  0  0  0
   42.8854  -43.6067   66.1355 H   0  0  0  0  0
   43.0088  -42.4536   63.1104 O   0  0  0  0  0
   40.8077  -43.1852   65.3793 H   0  0  0  0  0
   40.6878  -41.8779   64.2160 H   0  0  0  0  0
   40.9803  -44.5955   62.9524 H   0  0  0  0  0
   38.2729  -43.8534   64.1885 H   0  0  0  0  0
   38.6342  -45.1746   63.1133 H   0  0  0  0  0
   39.4250  -44.8398   66.0335 H   0  0  0  0  0
  1  2  1  0  0  0
  1 42  1  0  0  0
  2  3  1  0  0  0
  2 31  1  0  0  0
  2 57  1  0  0  0
  3  4  1  0  0  0
  3  7  1  0  0  0
  3 30  1  0  0  0
  4  5  1  0  0  0
  4  6  1  0  0  0
  7  8  1  0  0  0
  7 10  1  0  0  0
  7 29  1  0  0  0
  8  9  1  0  0  0
 10 11  1  0  0  0
 10 21  1  0  0  0
 10 28  1  0  0  0
 11 12  1  0  0  0
 11 20  2  0  0  0
 12 13  1  0  0  0
 12 15  1  0  0  0
 12 19  1  0  0  0
 13 14  1  0  0  0
 15 16  1  0  0  0
 15 18  2  0  0  0
 16 17  1  0  0  0
 21 22  1  0  0  0
 21 26  1  0  0  0
 21 27  1  0  0  0
 22 23  1  0  0  0
 22 24  1  0  0  0
 22 25  1  0  0  0
 31 32  1  0  0  0
 31 55  1  0  0  0
 31 56  1  0  0  0
 32 33  1  0  0  0
 32 35  1  0  0  0
 32 54  1  0  0  0
 33 34  1  0  0  0
 35 36  1  0  0  0
 35 52  1  0  0  0
 35 53  1  0  0  0
 36 37  1  0  0  0
 36 51  2  0  0  0
 37 38  1  0  0  0
 37 40  1  0  0  0
 37 50  1  0  0  0
 38 39  1  0  0  0
 40 41  2  0  0  0
 40 49  1  0  0  0
 41 42  1  0  0  0
 41 44  1  0  0  0
 42 43  2  0  0  0
 44 45  1  0  0  0
 45 46  1  0  0  0
 45 47  1  0  0  0
 45 48  1  0  0  0
M  END
> <# Confs.>
25

> <Pharmacophore Match>
(1YET) [A] GDM275

> <Matching Features>
||||HBA:495067246627921590|HBA:495067385280122077|HBA:495067408768422079|HBA:495067414144822081

> <Relative Pharmacophore-Fit Score>
0.50

> <Score>
0.50447804

> <Source Database>
conformers.ldb

> <Active/Decoy>
unknown

> <Mol. Index>
64

$$$$
44
XX    ILIB11302300363D

 76 76  0  0  1  0              1 V2000
   43.4089  -44.9997   59.5115 C   0  0  0  0  0
   44.1421  -45.9480   58.5534 C   0  0  0  0  0
   44.9555  -45.4421   58.0231 H   0  0  0  0  0
   43.4500  -46.3487   57.8044 H   0  0  0  0  0
   44.5782  -46.7919   59.0983 H   0  0  0  0  0
   42.8309  -43.8051   58.7746 C   0  0  0  0  0
   42.3279  -43.1313   59.4768 H   0  0  0  0  0
   43.6049  -43.2263   58.2594 H   0  0  0  0  0
   42.0966  -44.1263   58.0288 H   0  0  0  0  0
   44.3473  -44.5357   60.6226 C   0  0  0  0  0
   44.3872  -45.3777   61.8698 C   0  0  0  0  0
   43.3569  -44.9257   62.9037 C   0  0  0  0  0
   43.4397  -45.7570   64.0875 O   0  0  0  0  0
   44.2544  -45.4081   65.1035 C   0  0  0  0  0
   44.9137  -44.3774   65.1611 O   0  0  0  0  0
   44.2190  -46.4528   66.1987 C   0  0  0  0  0
   45.5855  -46.6477   66.6737 N   0  0  0  0  0
   46.1574  -47.0578   65.9358 H   0  0  0  0  0
   45.5911  -47.3130   67.4457 H   0  0  0  0  0
   43.6760  -47.8151   65.7811 C   0  0  0  0  0
   44.2838  -48.5369   64.9900 O   0  0  0  0  0
   42.3355  -48.2217   66.3841 C   0  0  0  0  0
   42.6298  -48.6609   67.6989 O   0  0  0  0  0
   43.1194  -49.4983   67.6324 H   0  0  0  0  0
   41.6043  -49.3042   65.5794 C   0  0  0  0  0
   41.2019  -48.7359   64.3352 O   0  0  0  0  0
   40.7278  -49.4247   63.8407 H   0  0  0  0  0
   40.3905  -49.9110   66.3143 C   0  0  0  0  0
   39.8283  -50.9270   65.4780 O   0  0  0  0  0
   39.0766  -51.3135   65.9569 H   0  0  0  0  0
   39.2919  -48.9241   66.7634 C   0  0  0  0  0
   38.3863  -49.6464   67.6079 O   0  0  0  0  0
   37.7673  -49.0018   67.9918 H   0  0  0  0  0
   38.5128  -48.2368   65.6601 C   0  0  0  0  0
   37.6162  -49.0212   64.9791 O   0  0  0  0  0
   36.3059  -49.0456   65.5298 C   0  0  0  0  0
   35.6861  -49.6860   64.8963 H   0  0  0  0  0
   35.8621  -48.0429   65.5363 H   0  0  0  0  0
   36.3123  -49.4729   66.5396 H   0  0  0  0  0
   38.7372  -46.9534   65.3255 C   0  0  0  0  0
   38.0187  -46.1761   64.2632 C   0  0  0  0  0
   37.5999  -44.8307   64.8391 C   0  0  0  0  0
   37.3100  -44.6966   66.0312 O   0  0  0  0  0
   37.5268  -43.6232   63.9059 C   0  0  0  0  0
   36.9763  -43.9786   62.6529 O   0  0  0  0  0
   36.0699  -44.2944   62.8082 H   0  0  0  0  0
   38.8689  -42.8853   63.7298 C   0  0  0  0  0
   39.4311  -42.6011   65.0142 O   0  0  0  0  0
   38.7725  -42.0912   65.5160 H   0  0  0  0  0
   39.8769  -43.5823   62.8434 C   0  0  0  0  0
   39.6734  -43.4056   61.4831 O   0  0  0  0  0
   38.8547  -42.8978   61.3631 H   0  0  0  0  0
   40.9164  -44.3195   63.2732 C   0  0  0  0  0
   41.9048  -45.0037   62.3618 C   0  0  0  0  0
   41.4820  -46.3576   62.2246 O   0  0  0  0  0
   41.8187  -46.6861   61.3745 H   0  0  0  0  0
   41.8747  -44.5386   61.3694 H   0  0  0  0  0
   41.0473  -44.4758   64.3414 H   0  0  0  0  0
   38.6647  -41.9125   63.2742 H   0  0  0  0  0
   36.8210  -42.9263   64.3768 H   0  0  0  0  0
   37.1187  -46.6778   63.8984 H   0  0  0  0  0
   38.6919  -46.0307   63.4186 H   0  0  0  0  0
   39.5063  -46.4074   65.8693 H   0  0  0  0  0
   39.7498  -48.1696   67.4131 H   0  0  0  0  0
   40.7569  -50.4376   67.2051 H   0  0  0  0  0
   42.2927  -50.1242   65.3389 H   0  0  0  0  0
   41.7196  -47.3181   66.4382 H   0  0  0  0  0
   43.6070  -46.0511   67.0123 H   0  0  0  0  0
   43.5619  -43.8860   63.1677 H   0  0  0  0  0
   45.7990  -45.4476   62.4497 C   0  0  0  0  0
   46.1290  -44.4743   62.8280 H   0  0  0  0  0
   45.8465  -46.1625   63.2777 H   0  0  0  0  0
   46.5194  -45.7653   61.6885 H   0  0  0  0  0
   44.1227  -46.4078   61.5473 H   0  0  0  0  0
   45.0247  -43.5251   60.5042 O   0  0  0  0  0
   42.5964  -45.5584   59.9791 H   0  0  0  0  0
  1  2  1  0  0  0
  1  6  1  0  0  0
  1 10  1  0  0  0
  1 76  1  0  0  0
  2  3  1  0  0  0
  2  4  1  0  0  0
  2  5  1  0  0  0
  6  7  1  0  0  0
  6  8  1  0  0  0
  6  9  1  0  0  0
 10 11  1  0  0  0
 10 75  2  0  0  0
 11 12  1  0  0  0
 11 70  1  0  0  0
 11 74  1  0  0  0
 12 13  1  0  0  0
 12 54  1  0  0  0
 12 69  1  0  0  0
 13 14  1  0  0  0
 14 15  2  0  0  0
 14 16  1  0  0  0
 16 17  1  0  0  0
 16 20  1  0  0  0
 16 68  1  0  0  0
 17 18  1  0  0  0
 17 19  1  0  0  0
 20 21  2  0  0  0
 20 22  1  0  0  0
 22 23  1  0  0  0
 22 25  1  0  0  0
 22 67  1  0  0  0
 23 24  1  0  0  0
 25 26  1  0  0  0
 25 28  1  0  0  0
 25 66  1  0  0  0
 26 27  1  0  0  0
 28 29  1  0  0  0
 28 31  1  0  0  0
 28 65  1  0  0  0
 29 30  1  0  0  0
 31 32  1  0  0  0
 31 34  1  0  0  0
 31 64  1  0  0  0
 32 33  1  0  0  0
 34 35  1  0  0  0
 34 40  2  0  0  0
 35 36  1  0  0  0
 36 37  1  0  0  0
 36 38  1  0  0  0
 36 39  1  0  0  0
 40 41  1  0  0  0
 40 63  1  0  0  0
 41 42  1  0  0  0
 41 61  1  0  0  0
 41 62  1  0  0  0
 42 43  2  0  0  0
 42 44  1  0  0  0
 44 45  1  0  0  0
 44 47  1  0  0  0
 44 60  1  0  0  0
 45 46  1  0  0  0
 47 48  1  0  0  0
 47 50  1  0  0  0
 47 59  1  0  0  0
 48 49  1  0  0  0
 50 51  1  0  0  0
 50 53  2  0  0  0
 51 52  1  0  0  0
 53 54  1  0  0  0
 53 58  1  0  0  0
 54 55  1  0  0  0
 54 57  1  0  0  0
 55 56  1  0  0  0
 70 71  1  0  0  0
 70 72  1  0  0  0
 70 73  1  0  0  0
M  END
> <# Confs.>
25

> <Pharmacophore Match>
(1YET) [A] GDM275

> <Matching Features>
||H:495067334351321757||HBA:495067246627921590|HBA:495067385280122077|HBA:495067408768422079|HBA:495067414144822081

> <Relative Pharmacophore-Fit Score>
0.62

> <Score>
0.6205507

> <Source Database>
conformers.ldb

> <Active/Decoy>
unknown

> <Mol. Index>
43

$$$$
63
XX    ILIB11302300363D

 51 50  0  0  1  0              1 V2000
   44.2906  -43.9329   62.2147 C   0  0  0  0  0
   44.3067  -45.2878   62.1832 O   0  0  0  0  0
   43.6756  -45.7073   61.5616 H   0  0  0  0  0
   44.9896  -43.2452   62.9421 O   0  0  0  0  0
   43.3026  -43.3890   61.2727 C   0  0  0  0  0
   43.4858  -43.7079   59.9551 N   0  0  0  0  0
   42.8366  -43.3668   59.2557 H   0  0  0  0  0
   44.2679  -44.2882   59.6810 H   0  0  0  0  0
   42.2911  -42.6145   61.7090 C   0  0  0  0  0
   41.9266  -42.2196   63.1007 C   0  0  0  0  0
   40.9721  -43.2493   63.6546 C   0  0  0  0  0
   39.8889  -43.4637   63.1064 O   0  0  0  0  0
   41.3604  -43.9869   64.9175 C   0  0  0  0  0
   40.7382  -45.2552   64.7997 O   0  0  0  0  0
   41.5674  -46.2121   64.1520 C   0  0  0  0  0
   42.4801  -46.3906   64.7270 H   0  0  0  0  0
   41.8181  -45.8793   63.1404 H   0  0  0  0  0
   41.0134  -47.1526   64.0808 H   0  0  0  0  0
   40.9297  -43.2847   66.2076 C   0  0  0  0  0
   39.4092  -43.1025   66.3364 C   0  0  0  0  0
   38.8841  -42.3124   65.2983 O   0  0  0  0  0
   39.0857  -42.7294   64.4516 H   0  0  0  0  0
   38.6836  -44.4198   66.4168 C   0  0  0  0  0
   39.0116  -45.3670   67.5461 C   0  0  0  0  0
   38.2380  -46.6651   67.5516 C   0  0  0  0  0
   38.8126  -47.8496   66.8061 C   0  0  0  0  0
   37.7134  -48.6818   66.3288 N   0  0  0  0  0
   38.0794  -49.4432   65.7561 H   0  0  0  0  0
   37.1158  -48.1350   65.7089 H   0  0  0  0  0
   39.6924  -48.7360   67.6563 C   0  0  0  0  0
   40.8259  -49.4822   66.9876 C   0  0  0  0  0
   42.0056  -48.7112   66.9935 O   0  0  0  0  0
   42.2287  -48.4984   67.9165 H   0  0  0  0  0
   41.1233  -50.8236   67.5984 C   0  0  0  0  0
   40.0389  -51.6369   67.5291 O   0  0  0  0  0
   40.2170  -52.5201   67.9171 H   0  0  0  0  0
   42.1982  -51.1663   68.0690 O   0  0  0  0  0
   40.5378  -49.6496   65.9436 H   0  0  0  0  0
   39.5096  -48.8253   68.8733 O   0  0  0  0  0
   39.3906  -47.4633   65.9602 H   0  0  0  0  0
   37.1785  -46.7641   68.1737 O   0  0  0  0  0
   38.8300  -44.8290   68.4828 H   0  0  0  0  0
   40.0746  -45.6232   67.4842 H   0  0  0  0  0
   37.8162  -44.7032   65.5882 O   0  0  0  0  0
   39.2026  -42.5621   67.2766 H   0  0  0  0  0
   41.3260  -43.8515   67.0758 H   0  0  0  0  0
   41.4093  -42.3117   66.2267 H   0  0  0  0  0
   42.4526  -44.1009   64.8942 H   0  0  0  0  0
   41.4338  -41.2418   63.1055 H   0  0  0  0  0
   42.8006  -42.1423   63.7560 H   0  0  0  0  0
   41.6189  -42.2177   60.9458 H   0  0  0  0  0
  1  2  1  0  0  0
  1  4  2  0  0  0
  1  5  1  0  0  0
  2  3  1  0  0  0
  5  6  1  0  0  0
  5  9  2  0  0  0
  6  7  1  0  0  0
  6  8  1  0  0  0
  9 10  1  0  0  0
  9 51  1  0  0  0
 10 11  1  0  0  0
 10 49  1  0  0  0
 10 50  1  0  0  0
 11 12  2  0  0  0
 11 13  1  0  0  0
 13 14  1  0  0  0
 13 19  1  0  0  0
 13 48  1  0  0  0
 14 15  1  0  0  0
 15 16  1  0  0  0
 15 17  1  0  0  0
 15 18  1  0  0  0
 19 20  1  0  0  0
 19 46  1  0  0  0
 19 47  1  0  0  0
 20 21  1  0  0  0
 20 23  1  0  0  0
 20 45  1  0  0  0
 21 22  1  0  0  0
 23 24  1  0  0  0
 23 44  2  0  0  0
 24 25  1  0  0  0
 24 42  1  0  0  0
 24 43  1  0  0  0
 25 26  1  0  0  0
 25 41  2  0  0  0
 26 27  1  0  0  0
 26 30  1  0  0  0
 26 40  1  0  0  0
 27 28  1  0  0  0
 27 29  1  0  0  0
 30 31  1  0  0  0
 30 39  2  0  0  0
 31 32  1  0  0  0
 31 34  1  0  0  0
 31 38  1  0  0  0
 32 33  1  0  0  0
 34 35  1  0  0  0
 34 37  2  0  0  0
 35 36  1  0  0  0
M  END
> <# Confs.>
25

> <Pharmacophore Match>
(1YET) [A] GDM275

> <Matching Features>
||||HBA:495067246627921590|HBA:495067385280122077|HBA:495067408768422079|HBA:495067414144822081

> <Relative Pharmacophore-Fit Score>
0.49

> <Score>
0.49122924

> <Source Database>
conformers.ldb

> <Active/Decoy>
unknown

> <Mol. Index>
57

$$$$
60
XX    ILIB11302300363D

 53 53  0  0  1  0              1 V2000
   41.2834  -47.5196   65.4216 O   0  0  0  0  0
   42.1351  -46.5514   66.1091 C   0  0  0  0  0
   42.8440  -45.7020   65.0646 C   0  0  0  0  0
   43.6134  -46.5416   64.2299 O   0  0  0  0  0
   44.9368  -46.7144   64.7207 C   0  0  0  0  0
   45.4507  -45.7519   64.8026 H   0  0  0  0  0
   45.4848  -47.3451   64.0163 H   0  0  0  0  0
   44.9191  -47.2155   65.6935 H   0  0  0  0  0
   41.8329  -44.8899   64.2302 C   0  0  0  0  0
   40.6200  -44.9630   64.4316 O   0  0  0  0  0
   42.4032  -43.9831   63.1606 C   0  0  0  0  0
   43.6816  -43.5387   63.5584 O   0  0  0  0  0
   44.1534  -43.2493   62.7589 H   0  0  0  0  0
   41.5622  -42.7699   62.8686 C   0  0  0  0  0
   40.3171  -43.1029   62.4392 O   0  0  0  0  0
   40.1548  -44.0690   62.3734 H   0  0  0  0  0
   41.9256  -41.6134   63.0274 O   0  0  0  0  0
   42.4998  -44.5727   62.2417 H   0  0  0  0  0
   43.4831  -44.9802   65.5721 H   0  0  0  0  0
   41.1954  -45.7572   67.0515 C   0  0  0  0  0
   41.8686  -44.5839   67.6084 N   0  0  0  0  0
   41.2491  -44.1035   68.2599 H   0  0  0  0  0
   42.6874  -44.8725   68.1416 H   0  0  0  0  0
   40.7192  -46.6161   68.2348 C   0  0  0  0  0
   39.6584  -47.6783   67.9455 C   0  0  0  0  0
   38.7395  -47.7567   69.0187 O   0  0  0  0  0
   37.6323  -46.8786   68.8570 C   0  0  0  0  0
   37.9670  -45.8405   68.7763 H   0  0  0  0  0
   36.9901  -46.9718   69.7361 H   0  0  0  0  0
   37.0519  -47.1574   67.9723 H   0  0  0  0  0
   40.2321  -49.0815   67.8646 C   0  0  0  0  0
   39.4466  -50.1126   67.0696 C   0  0  0  0  0
   39.1512  -51.1437   68.0108 O   0  0  0  0  0
   39.9853  -51.5838   68.2467 H   0  0  0  0  0
   40.2529  -50.6974   65.8985 C   0  0  0  0  0
   39.4938  -51.7599   65.3130 O   0  0  0  0  0
   39.2779  -52.3899   66.0196 H   0  0  0  0  0
   40.5996  -49.6962   64.7791 C   0  0  0  0  0
   39.4781  -48.9217   64.4010 O   0  0  0  0  0
   39.5202  -48.5255   63.0356 C   0  0  0  0  0
   40.4198  -47.9374   62.8291 H   0  0  0  0  0
   38.6438  -47.9057   62.8316 H   0  0  0  0  0
   39.4860  -49.4028   62.3836 H   0  0  0  0  0
   41.7304  -48.7833   65.2298 C   0  0  0  0  0
   42.8692  -49.1806   65.4450 O   0  0  0  0  0
   40.9727  -50.2200   63.8893 H   0  0  0  0  0
   41.1732  -51.1610   66.2740 H   0  0  0  0  0
   38.4872  -49.7062   66.7376 H   0  0  0  0  0
   41.2771  -49.3856   68.4426 O   0  0  0  0  0
   39.1369  -47.4424   67.0115 H   0  0  0  0  0
   41.1629  -46.4708   69.3763 O   0  0  0  0  0
   40.2989  -45.4182   66.5193 H   0  0  0  0  0
   42.8721  -47.0943   66.7019 H   0  0  0  0  0
  1  2  1  0  0  0
  1 44  1  0  0  0
  2  3  1  0  0  0
  2 20  1  0  0  0
  2 53  1  0  0  0
  3  4  1  0  0  0
  3  9  1  0  0  0
  3 19  1  0  0  0
  4  5  1  0  0  0
  5  6  1  0  0  0
  5  7  1  0  0  0
  5  8  1  0  0  0
  9 10  2  0  0  0
  9 11  1  0  0  0
 11 12  1  0  0  0
 11 14  1  0  0  0
 11 18  1  0  0  0
 12 13  1  0  0  0
 14 15  1  0  0  0
 14 17  2  0  0  0
 15 16  1  0  0  0
 20 21  1  0  0  0
 20 24  1  0  0  0
 20 52  1  0  0  0
 21 22  1  0  0  0
 21 23  1  0  0  0
 24 25  1  0  0  0
 24 51  2  0  0  0
 25 26  1  0  0  0
 25 31  1  0  0  0
 25 50  1  0  0  0
 26 27  1  0  0  0
 27 28  1  0  0  0
 27 29  1  0  0  0
 27 30  1  0  0  0
 31 32  1  0  0  0
 31 49  2  0  0  0
 32 33  1  0  0  0
 32 35  1  0  0  0
 32 48  1  0  0  0
 33 34  1  0  0  0
 35 36  1  0  0  0
 35 38  1  0  0  0
 35 47  1  0  0  0
 36 37  1  0  0  0
 38 39  1  0  0  0
 38 44  1  0  0  0
 38 46  1  0  0  0
 39 40  1  0  0  0
 40 41  1  0  0  0
 40 42  1  0  0  0
 40 43  1  0  0  0
 44 45  2  0  0  0
M  END
> <# Confs.>
25

> <Pharmacophore Match>
(1YET) [A] GDM275

> <Matching Features>
||||HBA:495067246627921590|HBA:495067385280122077|HBA:495067408768422079|HBA:495067414144822081

> <Relative Pharmacophore-Fit Score>
0.50

> <Score>
0.5033316

> <Source Database>
conformers.ldb

> <Active/Decoy>
unknown

> <Mol. Index>
62

$$$$
61
XX    ILIB11302300363D

 53 53  0  0  1  0              1 V2000
   39.5419  -43.9876   63.6770 C   0  0  0  0  0
   38.3838  -43.7764   64.3219 O   0  0  0  0  0
   37.7840  -43.1823   63.8224 H   0  0  0  0  0
   39.8206  -43.4837   62.5844 O   0  0  0  0  0
   40.4689  -44.8808   64.4688 C   0  0  0  0  0
   39.6117  -45.7331   65.2334 O   0  0  0  0  0
   39.5291  -45.5160   66.5844 C   0  0  0  0  0
   40.1885  -44.6998   67.2173 O   0  0  0  0  0
   38.4270  -46.3615   67.2011 C   0  0  0  0  0
   38.5978  -46.2331   68.6030 O   0  0  0  0  0
   37.3727  -46.3466   69.3150 C   0  0  0  0  0
   37.5830  -46.2278   70.3817 H   0  0  0  0  0
   36.9198  -47.3283   69.1587 H   0  0  0  0  0
   36.6787  -45.5578   69.0100 H   0  0  0  0  0
   38.3937  -47.8366   66.7641 C   0  0  0  0  0
   37.0912  -48.3368   67.0939 O   0  0  0  0  0
   37.0559  -49.2669   66.8094 H   0  0  0  0  0
   39.4414  -48.7427   67.4228 C   0  0  0  0  0
   39.1242  -50.1036   67.1203 O   0  0  0  0  0
   39.7288  -50.6655   67.6351 H   0  0  0  0  0
   40.8208  -48.5543   66.8142 C   0  0  0  0  0
   41.9347  -48.0888   67.7357 C   0  0  0  0  0
   42.1421  -49.1777   68.6208 O   0  0  0  0  0
   42.5955  -48.7620   69.9028 C   0  0  0  0  0
   42.7411  -49.6521   70.5203 H   0  0  0  0  0
   41.8546  -48.1191   70.3879 H   0  0  0  0  0
   43.5521  -48.2381   69.8192 H   0  0  0  0  0
   43.2321  -47.7416   67.0017 C   0  0  0  0  0
   44.2328  -48.4570   67.0773 O   0  0  0  0  0
   43.2255  -46.4603   66.1750 C   0  0  0  0  0
   44.2484  -45.5851   66.7404 N   0  0  0  0  0
   44.2715  -44.7108   66.2166 H   0  0  0  0  0
   45.1683  -46.0061   66.6185 H   0  0  0  0  0
   43.3942  -46.7689   64.6755 C   0  0  0  0  0
   44.7753  -47.0025   64.3781 O   0  0  0  0  0
   45.2429  -46.1556   64.4747 H   0  0  0  0  0
   42.8659  -45.6797   63.7204 C   0  0  0  0  0
   43.3401  -44.4061   64.1255 O   0  0  0  0  0
   43.4987  -43.5098   63.0337 C   0  0  0  0  0
   43.8741  -42.5593   63.4225 H   0  0  0  0  0
   42.5426  -43.3270   62.5360 H   0  0  0  0  0
   44.2260  -43.9033   62.3186 H   0  0  0  0  0
   41.3364  -45.7795   63.6127 C   0  0  0  0  0
   40.8228  -46.6229   62.8731 O   0  0  0  0  0
   43.2652  -45.8900   62.7180 H   0  0  0  0  0
   42.8945  -47.7121   64.4348 H   0  0  0  0  0
   42.2592  -45.9867   66.3402 H   0  0  0  0  0
   41.5871  -47.2037   68.2820 H   0  0  0  0  0
   41.0201  -48.8053   65.6251 O   0  0  0  0  0
   39.4547  -48.6439   68.5109 H   0  0  0  0  0
   38.4640  -47.9082   65.6724 H   0  0  0  0  0
   37.4874  -45.8655   66.9182 H   0  0  0  0  0
   41.0841  -44.2299   65.1079 H   0  0  0  0  0
  1  2  1  0  0  0
  1  4  2  0  0  0
  1  5  1  0  0  0
  2  3  1  0  0  0
  5  6  1  0  0  0
  5 43  1  0  0  0
  5 53  1  0  0  0
  6  7  1  0  0  0
  7  8  2  0  0  0
  7  9  1  0  0  0
  9 10  1  0  0  0
  9 15  1  0  0  0
  9 52  1  0  0  0
 10 11  1  0  0  0
 11 12  1  0  0  0
 11 13  1  0  0  0
 11 14  1  0  0  0
 15 16  1  0  0  0
 15 18  1  0  0  0
 15 51  1  0  0  0
 16 17  1  0  0  0
 18 19  1  0  0  0
 18 21  1  0  0  0
 18 50  1  0  0  0
 19 20  1  0  0  0
 21 22  1  0  0  0
 21 49  2  0  0  0
 22 23  1  0  0  0
 22 28  1  0  0  0
 22 48  1  0  0  0
 23 24  1  0  0  0
 24 25  1  0  0  0
 24 26  1  0  0  0
 24 27  1  0  0  0
 28 29  2  0  0  0
 28 30  1  0  0  0
 30 31  1  0  0  0
 30 34  1  0  0  0
 30 47  1  0  0  0
 31 32  1  0  0  0
 31 33  1  0  0  0
 34 35  1  0  0  0
 34 37  1  0  0  0
 34 46  1  0  0  0
 35 36  1  0  0  0
 37 38  1  0  0  0
 37 43  1  0  0  0
 37 45  1  0  0  0
 38 39  1  0  0  0
 39 40  1  0  0  0
 39 41  1  0  0  0
 39 42  1  0  0  0
 43 44  2  0  0  0
M  END
> <# Confs.>
25

> <Pharmacophore Match>
(1YET) [A] GDM275

> <Matching Features>
||||HBA:495067246627921590|HBA:495067385280122077|HBA:495067408768422079|HBA:495067414144822081

> <Relative Pharmacophore-Fit Score>
0.50

> <Score>
0.4983073

> <Source Database>
conformers.ldb

> <Active/Decoy>
unknown

> <Mol. Index>
67

$$$$
67
XX    ILIB11302300363D

 57 57  0  0  1  0              1 V2000
   42.1822  -44.2423   62.1731 O   0  0  0  0  0
   43.3197  -44.8873   62.8134 C   0  0  0  0  0
   44.6038  -44.3208   62.2065 C   0  0  0  0  0
   45.0155  -42.9956   62.8254 C   0  0  0  0  0
   44.0205  -41.8500   62.7557 C   0  0  0  0  0
   44.7127  -40.6152   62.8520 O   0  0  0  0  0
   45.2755  -40.5323   62.0634 H   0  0  0  0  0
   43.1059  -41.9779   63.9369 C   0  0  0  0  0
   41.9193  -42.6160   63.9585 C   0  0  0  0  0
   41.4260  -43.2599   62.7241 C   0  0  0  0  0
   40.3498  -42.9233   62.2388 O   0  0  0  0  0
   41.0467  -42.6911   65.0148 O   0  0  0  0  0
   41.4737  -42.0139   66.1918 C   0  0  0  0  0
   40.7016  -42.1440   66.9549 H   0  0  0  0  0
   41.5873  -40.9422   66.0067 H   0  0  0  0  0
   42.4050  -42.4436   66.5771 H   0  0  0  0  0
   43.4686  -41.4987   64.8437 H   0  0  0  0  0
   43.4970  -41.8592   61.7961 H   0  0  0  0  0
   46.1304  -42.8569   63.3319 O   0  0  0  0  0
   44.5017  -44.1629   61.1272 H   0  0  0  0  0
   45.4372  -45.0153   62.3682 H   0  0  0  0  0
   43.2039  -46.3821   62.5086 C   0  0  0  0  0
   41.9350  -47.0960   63.0023 C   0  0  0  0  0
   41.9767  -48.4774   62.6419 O   0  0  0  0  0
   42.1378  -48.5275   61.6848 H   0  0  0  0  0
   41.6157  -46.9862   64.4947 C   0  0  0  0  0
   42.7314  -47.5522   65.2523 N   0  0  0  0  0
   42.7838  -48.5546   65.0772 H   0  0  0  0  0
   42.5619  -47.4489   66.2516 H   0  0  0  0  0
   40.2845  -47.6213   64.9146 C   0  0  0  0  0
   40.2841  -49.0143   64.5958 O   0  0  0  0  0
   40.5200  -49.1074   63.6572 H   0  0  0  0  0
   39.8510  -47.4404   66.3670 C   0  0  0  0  0
   40.8459  -48.0176   67.3492 C   0  0  0  0  0
   41.1579  -49.4971   67.2743 C   0  0  0  0  0
   42.1041  -49.8594   68.2549 O   0  0  0  0  0
   41.7453  -49.6257   69.1291 H   0  0  0  0  0
   39.9552  -50.3875   67.4113 C   0  0  0  0  0
   40.1301  -51.5437   66.7222 O   0  0  0  0  0
   39.3572  -52.1404   66.8065 H   0  0  0  0  0
   38.9579  -50.1374   68.0729 O   0  0  0  0  0
   41.6024  -49.6888   66.2913 H   0  0  0  0  0
   41.3917  -47.3001   68.1900 O   0  0  0  0  0
   39.4921  -45.9894   66.7432 C   0  0  0  0  0
   38.3558  -45.3214   65.9658 C   0  0  0  0  0
   36.8249  -46.2091   66.1564 Cl  0  0  0  0  0
   38.5907  -45.2969   64.8980 H   0  0  0  0  0
   38.1926  -44.2942   66.3072 H   0  0  0  0  0
   39.2753  -45.9375   67.8180 H   0  0  0  0  0
   40.3991  -45.3895   66.5883 H   0  0  0  0  0
   38.9196  -48.0237   66.4934 H   0  0  0  0  0
   39.4904  -47.1776   64.2777 H   0  0  0  0  0
   41.5672  -45.9118   64.7409 H   0  0  0  0  0
   41.0821  -46.6690   62.4590 H   0  0  0  0  0
   43.3137  -46.5438   61.4301 H   0  0  0  0  0
   44.0669  -46.8739   62.9779 H   0  0  0  0  0
   43.2924  -44.7525   63.9006 H   0  0  0  0  0
  1  2  1  0  0  0
  1 10  1  0  0  0
  2  3  1  0  0  0
  2 22  1  0  0  0
  2 57  1  0  0  0
  3  4  1  0  0  0
  3 20  1  0  0  0
  3 21  1  0  0  0
  4  5  1  0  0  0
  4 19  2  0  0  0
  5  6  1  0  0  0
  5  8  1  0  0  0
  5 18  1  0  0  0
  6  7  1  0  0  0
  8  9  2  0  0  0
  8 17  1  0  0  0
  9 10  1  0  0  0
  9 12  1  0  0  0
 10 11  2  0  0  0
 12 13  1  0  0  0
 13 14  1  0  0  0
 13 15  1  0  0  0
 13 16  1  0  0  0
 22 23  1  0  0  0
 22 55  1  0  0  0
 22 56  1  0  0  0
 23 24  1  0  0  0
 23 26  1  0  0  0
 23 54  1  0  0  0
 24 25  1  0  0  0
 26 27  1  0  0  0
 26 30  1  0  0  0
 26 53  1  0  0  0
 27 28  1  0  0  0
 27 29  1  0  0  0
 30 31  1  0  0  0
 30 33  1  0  0  0
 30 52  1  0  0  0
 31 32  1  0  0  0
 33 34  1  0  0  0
 33 44  1  0  0  0
 33 51  1  0  0  0
 34 35  1  0  0  0
 34 43  2  0  0  0
 35 36  1  0  0  0
 35 38  1  0  0  0
 35 42  1  0  0  0
 36 37  1  0  0  0
 38 39  1  0  0  0
 38 41  2  0  0  0
 39 40  1  0  0  0
 44 45  1  0  0  0
 44 49  1  0  0  0
 44 50  1  0  0  0
 45 46  1  0  0  0
 45 47  1  0  0  0
 45 48  1  0  0  0
M  END
> <# Confs.>
25

> <Pharmacophore Match>
(1YET) [A] GDM275

> <Matching Features>
||||HBA:495067246627921590|HBA:495067385280122077|HBA:495067408768422079|HBA:495067414144822081

> <Relative Pharmacophore-Fit Score>
0.50

> <Score>
0.50193113

> <Source Database>
conformers.ldb

> <Active/Decoy>
unknown

> <Mol. Index>
63

$$$$
72
XX    ILIB11302300363D

 59 59  0  0  1  0              1 V2000
   39.0325  -52.1155   68.0998 C   0  0  0  0  0
   38.9306  -53.2092   68.8989 O   0  0  0  0  0
   39.5795  -53.9179   68.7026 H   0  0  0  0  0
   38.3141  -51.1324   68.2195 O   0  0  0  0  0
   40.1466  -52.2485   67.0962 C   0  0  0  0  0
   41.1699  -53.0564   67.6389 O   0  0  0  0  0
   41.6995  -53.3972   66.8979 H   0  0  0  0  0
   40.7677  -50.9300   66.6786 C   0  0  0  0  0
   41.7266  -50.4494   67.2852 O   0  0  0  0  0
   40.1680  -50.2386   65.4737 C   0  0  0  0  0
   41.1363  -50.0679   64.4515 O   0  0  0  0  0
   41.1688  -51.1762   63.5525 C   0  0  0  0  0
   41.3986  -52.1048   64.0842 H   0  0  0  0  0
   41.9550  -50.9915   62.8162 H   0  0  0  0  0
   40.2153  -51.2707   63.0250 H   0  0  0  0  0
   39.5853  -48.8708   65.8432 C   0  0  0  0  0
   40.6223  -48.0234   66.3631 O   0  0  0  0  0
   41.2743  -47.8586   65.6622 H   0  0  0  0  0
   38.8405  -48.1898   64.6994 C   0  0  0  0  0
   37.7123  -49.0013   64.2539 N   0  0  0  0  0
   37.0585  -49.1352   65.0155 H   0  0  0  0  0
   37.2100  -48.5267   63.5052 H   0  0  0  0  0
   38.2885  -46.8387   65.1227 C   0  0  0  0  0
   37.1615  -46.7363   65.6088 O   0  0  0  0  0
   39.1851  -45.6332   64.9451 C   0  0  0  0  0
   39.0191  -44.9682   63.6059 C   0  0  0  0  0
   38.2216  -45.3962   62.7690 O   0  0  0  0  0
   39.8618  -43.7408   63.3374 C   0  0  0  0  0
   39.5537  -43.2746   62.0324 O   0  0  0  0  0
   39.9175  -43.9126   61.3958 H   0  0  0  0  0
   41.3622  -43.9847   63.4820 C   0  0  0  0  0
   41.7198  -45.0112   62.5265 O   0  0  0  0  0
   42.6055  -45.9342   62.9824 C   0  0  0  0  0
   43.6339  -46.1671   61.9476 C   0  0  0  0  0
   43.8806  -47.5957   61.5825 C   0  0  0  0  0
   42.9723  -48.0435   61.1662 H   0  0  0  0  0
   44.6755  -47.6980   60.8353 H   0  0  0  0  0
   44.1791  -48.1735   62.4631 H   0  0  0  0  0
   44.3228  -45.1345   61.4251 C   0  0  0  0  0
   44.2567  -43.6576   61.7071 C   0  0  0  0  0
   43.7336  -43.2321   63.0792 C   0  0  0  0  0
   42.2685  -42.7817   63.1517 C   0  0  0  0  0
   42.1678  -41.7251   64.1537 N   0  0  0  0  0
   42.8122  -40.9710   63.9296 H   0  0  0  0  0
   42.4425  -42.0824   65.0676 H   0  0  0  0  0
   42.0112  -42.3545   62.1773 H   0  0  0  0  0
   44.4472  -43.3160   64.0791 O   0  0  0  0  0
   43.6823  -43.1584   60.9191 H   0  0  0  0  0
   45.2721  -43.2490   61.6378 H   0  0  0  0  0
   45.0626  -45.3823   60.6636 H   0  0  0  0  0
   42.6136  -46.4715   64.0785 O   0  0  0  0  0
   41.5687  -44.3387   64.5015 H   0  0  0  0  0
   39.5464  -42.9742   64.0541 H   0  0  0  0  0
   40.2339  -45.9240   65.0646 H   0  0  0  0  0
   38.9679  -44.9197   65.7469 H   0  0  0  0  0
   39.5059  -48.0461   63.8249 H   0  0  0  0  0
   38.8939  -49.0191   66.6690 H   0  0  0  0  0
   39.3501  -50.8739   65.1066 H   0  0  0  0  0
   39.7372  -52.7412   66.2075 H   0  0  0  0  0
  1  2  1  0  0  0
  1  4  2  0  0  0
  1  5  1  0  0  0
  2  3  1  0  0  0
  5  6  1  0  0  0
  5  8  1  0  0  0
  5 59  1  0  0  0
  6  7  1  0  0  0
  8  9  2  0  0  0
  8 10  1  0  0  0
 10 11  1  0  0  0
 10 16  1  0  0  0
 10 58  1  0  0  0
 11 12  1  0  0  0
 12 13  1  0  0  0
 12 14  1  0  0  0
 12 15  1  0  0  0
 16 17  1  0  0  0
 16 19  1  0  0  0
 16 57  1  0  0  0
 17 18  1  0  0  0
 19 20  1  0  0  0
 19 23  1  0  0  0
 19 56  1  0  0  0
 20 21  1  0  0  0
 20 22  1  0  0  0
 23 24  2  0  0  0
 23 25  1  0  0  0
 25 26  1  0  0  0
 25 54  1  0  0  0
 25 55  1  0  0  0
 26 27  2  0  0  0
 26 28  1  0  0  0
 28 29  1  0  0  0
 28 31  1  0  0  0
 28 53  1  0  0  0
 29 30  1  0  0  0
 31 32  1  0  0  0
 31 42  1  0  0  0
 31 52  1  0  0  0
 32 33  1  0  0  0
 33 34  1  0  0  0
 33 51  2  0  0  0
 34 35  1  0  0  0
 34 39  2  0  0  0
 35 36  1  0  0  0
 35 37  1  0  0  0
 35 38  1  0  0  0
 39 40  1  0  0  0
 39 50  1  0  0  0
 40 41  1  0  0  0
 40 48  1  0  0  0
 40 49  1  0  0  0
 41 42  1  0  0  0
 41 47  2  0  0  0
 42 43  1  0  0  0
 42 46  1  0  0  0
 43 44  1  0  0  0
 43 45  1  0  0  0
M  END
> <# Confs.>
25

> <Pharmacophore Match>
(1YET) [A] GDM275

> <Matching Features>
||||HBA:495067246627921590|HBA:495067385280122077|HBA:495067408768422079|HBA:495067414144822081

> <Relative Pharmacophore-Fit Score>
0.52

> <Score>
0.5169027

> <Source Database>
conformers.ldb

> <Active/Decoy>
unknown

> <Mol. Index>
66

$$$$
77
XX    ILIB11302300363D

 56 56  0  0  1  0              1 V2000
   41.2066  -46.3894   66.2162 N   0  0  0  0  0
   39.8491  -45.8663   66.1036 C   0  0  0  0  0
   39.7336  -44.4494   66.6581 C   0  0  0  0  0
   40.0748  -44.4303   68.0472 O   0  0  0  0  0
   41.0139  -44.6654   68.1279 H   0  0  0  0  0
   40.5032  -43.3989   65.8589 C   0  0  0  0  0
   40.0192  -43.3418   64.4298 C   0  0  0  0  0
   41.0285  -42.9493   63.3729 C   0  0  0  0  0
   40.4058  -42.9503   62.1062 O   0  0  0  0  0
   40.9430  -42.3989   61.5131 H   0  0  0  0  0
   42.2273  -43.8561   63.2984 C   0  0  0  0  0
   42.0355  -44.8862   62.4336 O   0  0  0  0  0
   41.1552  -44.8941   62.0000 H   0  0  0  0  0
   43.2731  -43.6836   63.9097 O   0  0  0  0  0
   41.3709  -41.9330   63.6000 H   0  0  0  0  0
   38.8484  -43.5932   64.1394 O   0  0  0  0  0
   40.5524  -41.9836   66.4726 C   0  0  0  0  0
   39.1817  -41.3297   66.6417 C   0  0  0  0  0
   39.3202  -39.7002   67.3424 Cl  0  0  0  0  0
   38.5386  -41.9244   67.2975 H   0  0  0  0  0
   38.6861  -41.2300   65.6722 H   0  0  0  0  0
   41.0298  -42.0220   67.4610 H   0  0  0  0  0
   41.1821  -41.3365   65.8489 H   0  0  0  0  0
   41.5521  -43.7464   65.8241 H   0  0  0  0  0
   38.6572  -44.1767   66.6334 H   0  0  0  0  0
   38.9853  -46.8663   66.8409 C   0  0  0  0  0
   38.3936  -47.9273   66.2654 C   0  0  0  0  0
   38.0388  -49.0214   67.2231 C   0  0  0  0  0
   38.9503  -50.2580   67.2132 C   0  0  0  0  0
   38.6361  -51.0891   68.3150 O   0  0  0  0  0
   37.7339  -51.4251   68.1795 H   0  0  0  0  0
   40.3772  -49.7987   67.3509 C   0  0  0  0  0
   41.3256  -49.8669   66.3994 C   0  0  0  0  0
   42.5802  -49.1070   66.6966 C   0  0  0  0  0
   42.9691  -47.9870   65.7314 C   0  0  0  0  0
   43.9046  -47.1415   66.3679 O   0  0  0  0  0
   44.3780  -46.6523   65.6735 H   0  0  0  0  0
   41.8064  -47.1513   65.2229 C   0  0  0  0  0
   41.4202  -47.2277   64.0592 O   0  0  0  0  0
   43.4684  -48.4566   64.8763 H   0  0  0  0  0
   43.2607  -49.3962   67.6784 O   0  0  0  0  0
   41.2308  -50.5555   65.0791 C   0  0  0  0  0
   42.2113  -50.9363   64.7733 H   0  0  0  0  0
   40.5589  -51.4176   65.1166 H   0  0  0  0  0
   40.8721  -49.8728   64.3045 H   0  0  0  0  0
   40.5994  -49.2659   68.2764 H   0  0  0  0  0
   38.7632  -50.8232   66.2967 H   0  0  0  0  0
   37.0722  -48.9060   67.9728 O   0  0  0  0  0
   38.4463  -48.1700   64.9161 O   0  0  0  0  0
   37.3156  -48.8530   64.3880 C   0  0  0  0  0
   37.4660  -48.9713   63.3116 H   0  0  0  0  0
   36.3988  -48.2725   64.5379 H   0  0  0  0  0
   37.2189  -49.8519   64.8281 H   0  0  0  0  0
   38.9996  -46.7953   67.9281 H   0  0  0  0  0
   39.5616  -45.8469   65.0394 H   0  0  0  0  0
   41.6438  -46.3583   67.1332 H   0  0  0  0  0
  1  2  1  0  0  0
  1 38  1  0  0  0
  1 56  1  0  0  0
  2  3  1  0  0  0
  2 26  1  0  0  0
  2 55  1  0  0  0
  3  4  1  0  0  0
  3  6  1  0  0  0
  3 25  1  0  0  0
  4  5  1  0  0  0
  6  7  1  0  0  0
  6 17  1  0  0  0
  6 24  1  0  0  0
  7  8  1  0  0  0
  7 16  2  0  0  0
  8  9  1  0  0  0
  8 11  1  0  0  0
  8 15  1  0  0  0
  9 10  1  0  0  0
 11 12  1  0  0  0
 11 14  2  0  0  0
 12 13  1  0  0  0
 17 18  1  0  0  0
 17 22  1  0  0  0
 17 23  1  0  0  0
 18 19  1  0  0  0
 18 20  1  0  0  0
 18 21  1  0  0  0
 26 27  2  0  0  0
 26 54  1  0  0  0
 27 28  1  0  0  0
 27 49  1  0  0  0
 28 29  1  0  0  0
 28 48  2  0  0  0
 29 30  1  0  0  0
 29 32  1  0  0  0
 29 47  1  0  0  0
 30 31  1  0  0  0
 32 33  2  0  0  0
 32 46  1  0  0  0
 33 34  1  0  0  0
 33 42  1  0  0  0
 34 35  1  0  0  0
 34 41  2  0  0  0
 35 36  1  0  0  0
 35 38  1  0  0  0
 35 40  1  0  0  0
 36 37  1  0  0  0
 38 39  2  0  0  0
 42 43  1  0  0  0
 42 44  1  0  0  0
 42 45  1  0  0  0
 49 50  1  0  0  0
 50 51  1  0  0  0
 50 52  1  0  0  0
 50 53  1  0  0  0
M  END
> <# Confs.>
25

> <Pharmacophore Match>
(1YET) [A] GDM275

> <Matching Features>
||||HBA:495067246627921590|HBA:495067385280122077|HBA:495067408768422079|HBA:495067414144822081

> <Relative Pharmacophore-Fit Score>
0.50

> <Score>
0.50016975

> <Source Database>
conformers.ldb

> <Active/Decoy>
unknown

> <Mol. Index>
76

$$$$
84
XX    ILIB11302300363D

 47 47  0  0  1  0              1 V2000
   39.6866  -50.2020   66.4589 C   0  0  0  0  0
   38.7751  -49.8824   67.4340 O   0  0  0  0  0
   39.2544  -49.7447   68.2686 H   0  0  0  0  0
   41.0223  -50.0919   66.5548 C   0  0  0  0  0
   41.6885  -49.3323   67.5927 C   0  0  0  0  0
   42.0560  -50.1344   68.6437 O   0  0  0  0  0
   42.7179  -49.4587   69.7072 C   0  0  0  0  0
   42.9374  -50.1928   70.4865 H   0  0  0  0  0
   43.6669  -49.0284   69.3690 H   0  0  0  0  0
   42.0741  -48.6862   70.1411 H   0  0  0  0  0
   41.8661  -47.9905   67.4921 C   0  0  0  0  0
   41.5097  -47.0045   66.3635 C   0  0  0  0  0
   40.9916  -47.6831   65.1842 N   0  0  0  0  0
   39.6306  -47.8324   64.9229 C   0  0  0  0  0
   39.3515  -49.1261   64.1501 C   0  0  0  0  0
   38.1205  -48.9526   63.3865 N   0  0  0  0  0
   37.3502  -48.7132   64.0104 H   0  0  0  0  0
   38.2215  -48.1701   62.7416 H   0  0  0  0  0
   39.1612  -50.3448   65.0719 C   0  0  0  0  0
   38.6067  -51.3839   64.7245 O   0  0  0  0  0
   40.1766  -49.3471   63.4653 H   0  0  0  0  0
   38.7417  -47.1093   65.3669 O   0  0  0  0  0
   41.6511  -48.2481   64.6578 H   0  0  0  0  0
   42.6877  -46.1235   65.9685 C   0  0  0  0  0
   43.1117  -45.3609   67.1084 O   0  0  0  0  0
   42.3709  -44.7912   67.3787 H   0  0  0  0  0
   42.3612  -45.1271   64.8430 C   0  0  0  0  0
   43.4944  -44.3453   64.5010 O   0  0  0  0  0
   44.3000  -44.9267   63.4992 C   0  0  0  0  0
   45.1494  -44.2647   63.3098 H   0  0  0  0  0
   43.7383  -45.0444   62.5676 H   0  0  0  0  0
   44.6832  -45.8951   63.8332 H   0  0  0  0  0
   41.2701  -44.1229   65.1745 C   0  0  0  0  0
   40.8955  -43.1294   64.0911 C   0  0  0  0  0
   39.8815  -42.2687   64.5629 O   0  0  0  0  0
   39.1087  -42.8076   64.8028 H   0  0  0  0  0
   40.4218  -43.7453   62.8015 C   0  0  0  0  0
   40.1016  -42.8088   61.8723 O   0  0  0  0  0
   40.2080  -41.8828   62.1768 H   0  0  0  0  0
   40.3625  -44.9486   62.5848 O   0  0  0  0  0
   41.7790  -42.5157   63.8883 H   0  0  0  0  0
   40.7477  -44.0857   66.2891 O   0  0  0  0  0
   42.0130  -45.6878   63.9524 H   0  0  0  0  0
   43.5271  -46.7498   65.6573 H   0  0  0  0  0
   40.7111  -46.3607   66.7718 H   0  0  0  0  0
   42.3384  -47.4825   68.3322 H   0  0  0  0  0
   41.6579  -50.3473   65.7087 H   0  0  0  0  0
  1  2  1  0  0  0
  1  4  2  0  0  0
  1 19  1  0  0  0
  2  3  1  0  0  0
  4  5  1  0  0  0
  4 47  1  0  0  0
  5  6  1  0  0  0
  5 11  2  0  0  0
  6  7  1  0  0  0
  7  8  1  0  0  0
  7  9  1  0  0  0
  7 10  1  0  0  0
 11 12  1  0  0  0
 11 46  1  0  0  0
 12 13  1  0  0  0
 12 24  1  0  0  0
 12 45  1  0  0  0
 13 14  1  0  0  0
 13 23  1  0  0  0
 14 15  1  0  0  0
 14 22  2  0  0  0
 15 16  1  0  0  0
 15 19  1  0  0  0
 15 21  1  0  0  0
 16 17  1  0  0  0
 16 18  1  0  0  0
 19 20  2  0  0  0
 24 25  1  0  0  0
 24 27  1  0  0  0
 24 44  1  0  0  0
 25 26  1  0  0  0
 27 28  1  0  0  0
 27 33  1  0  0  0
 27 43  1  0  0  0
 28 29  1  0  0  0
 29 30  1  0  0  0
 29 31  1  0  0  0
 29 32  1  0  0  0
 33 34  1  0  0  0
 33 42  2  0  0  0
 34 35  1  0  0  0
 34 37  1  0  0  0
 34 41  1  0  0  0
 35 36  1  0  0  0
 37 38  1  0  0  0
 37 40  2  0  0  0
 38 39  1  0  0  0
M  END
> <# Confs.>
25

> <Pharmacophore Match>
(1YET) [A] GDM275

> <Matching Features>
||||HBA:495067246627921590|HBA:495067385280122077|HBA:495067408768422079|HBA:495067414144822081

> <Relative Pharmacophore-Fit Score>
0.50

> <Score>
0.5002784

> <Source Database>
conformers.ldb

> <Active/Decoy>
unknown

> <Mol. Index>
81

$$$$
48
XX    ILIB11302300363D

 58 58  0  0  1  0              1 V2000
   41.9553  -49.3560   67.9972 C   0  0  0  0  0
   41.9374  -50.0566   69.1592 O   0  0  0  0  0
   42.5099  -49.6474   69.8424 H   0  0  0  0  0
   42.6230  -48.3463   67.8253 O   0  0  0  0  0
   41.0809  -50.0081   66.9803 C   0  0  0  0  0
   41.0345  -51.4066   67.1622 O   0  0  0  0  0
   40.7007  -51.5796   68.0593 H   0  0  0  0  0
   39.6699  -49.4764   66.9332 C   0  0  0  0  0
   38.7104  -50.2335   67.1343 O   0  0  0  0  0
   39.4595  -48.0016   66.6877 C   0  0  0  0  0
   38.0662  -47.7725   66.6992 O   0  0  0  0  0
   37.5738  -47.4670   67.9898 C   0  0  0  0  0
   38.0166  -46.5403   68.3659 H   0  0  0  0  0
   37.7789  -48.2897   68.6818 H   0  0  0  0  0
   36.4910  -47.3311   67.9227 H   0  0  0  0  0
   39.9821  -47.4659   65.3528 C   0  0  0  0  0
   40.0060  -48.1972   64.3605 O   0  0  0  0  0
   40.4084  -46.0117   65.2844 C   0  0  0  0  0
   40.1684  -45.5539   63.9276 N   0  0  0  0  0
   39.7421  -44.2670   63.6420 C   0  0  0  0  0
   39.5583  -44.0135   62.1596 C   0  0  0  0  0
   38.2161  -43.5903   61.9881 O   0  0  0  0  0
   38.0951  -42.7611   62.4818 H   0  0  0  0  0
   40.4909  -42.9385   61.6168 C   0  0  0  0  0
   41.9184  -43.3652   61.2930 C   0  0  0  0  0
   41.8690  -43.7897   59.8884 N   0  0  0  0  0
   42.7824  -44.1448   59.6106 H   0  0  0  0  0
   41.6943  -42.9821   59.2901 H   0  0  0  0  0
   42.9630  -42.2444   61.4869 C   0  0  0  0  0
   44.2202  -42.6360   60.9213 O   0  0  0  0  0
   44.3370  -43.5904   61.0571 H   0  0  0  0  0
   43.2173  -41.7893   62.9363 C   0  0  0  0  0
   42.2369  -40.8306   63.3186 O   0  0  0  0  0
   41.3685  -41.2656   63.3134 H   0  0  0  0  0
   43.2395  -42.8833   64.0097 C   0  0  0  0  0
   44.3300  -43.9368   63.9351 C   0  0  0  0  0
   45.5631  -43.2906   64.1694 O   0  0  0  0  0
   45.5503  -42.9376   65.0749 H   0  0  0  0  0
   44.1697  -45.1066   64.8962 C   0  0  0  0  0
   42.9665  -46.0122   64.6811 C   0  0  0  0  0
   43.3952  -47.3574   64.7987 O   0  0  0  0  0
   43.7482  -47.4856   65.6955 H   0  0  0  0  0
   41.8597  -45.8216   65.7030 C   0  0  0  0  0
   42.1349  -45.6880   66.8998 O   0  0  0  0  0
   42.6052  -45.8734   63.6626 H   0  0  0  0  0
   44.9915  -45.3318   65.7863 O   0  0  0  0  0
   44.3631  -44.3709   62.9351 H   0  0  0  0  0
   42.4314  -42.8727   64.9400 O   0  0  0  0  0
   44.1826  -41.2743   62.9971 H   0  0  0  0  0
   42.6468  -41.3632   60.9149 H   0  0  0  0  0
   42.1792  -44.2388   61.8945 H   0  0  0  0  0
   40.0943  -41.7896   61.4083 O   0  0  0  0  0
   39.6859  -44.9239   61.5686 H   0  0  0  0  0
   39.5133  -43.3932   64.4769 O   0  0  0  0  0
   40.3439  -46.2021   63.1649 H   0  0  0  0  0
   39.7767  -45.4208   65.9572 H   0  0  0  0  0
   39.9823  -47.4724   67.4950 H   0  0  0  0  0
   41.5329  -49.8244   65.9851 H   0  0  0  0  0
  1  2  1  0  0  0
  1  4  2  0  0  0
  1  5  1  0  0  0
  2  3  1  0  0  0
  5  6  1  0  0  0
  5  8  1  0  0  0
  5 58  1  0  0  0
  6  7  1  0  0  0
  8  9  2  0  0  0
  8 10  1  0  0  0
 10 11  1  0  0  0
 10 16  1  0  0  0
 10 57  1  0  0  0
 11 12  1  0  0  0
 12 13  1  0  0  0
 12 14  1  0  0  0
 12 15  1  0  0  0
 16 17  2  0  0  0
 16 18  1  0  0  0
 18 19  1  0  0  0
 18 43  1  0  0  0
 18 56  1  0  0  0
 19 20  1  0  0  0
 19 55  1  0  0  0
 20 21  1  0  0  0
 20 54  2  0  0  0
 21 22  1  0  0  0
 21 24  1  0  0  0
 21 53  1  0  0  0
 22 23  1  0  0  0
 24 25  1  0  0  0
 24 52  2  0  0  0
 25 26  1  0  0  0
 25 29  1  0  0  0
 25 51  1  0  0  0
 26 27  1  0  0  0
 26 28  1  0  0  0
 29 30  1  0  0  0
 29 32  1  0  0  0
 29 50  1  0  0  0
 30 31  1  0  0  0
 32 33  1  0  0  0
 32 35  1  0  0  0
 32 49  1  0  0  0
 33 34  1  0  0  0
 35 36  1  0  0  0
 35 48  2  0  0  0
 36 37  1  0  0  0
 36 39  1  0  0  0
 36 47  1  0  0  0
 37 38  1  0  0  0
 39 40  1  0  0  0
 39 46  2  0  0  0
 40 41  1  0  0  0
 40 43  1  0  0  0
 40 45  1  0  0  0
 41 42  1  0  0  0
 43 44  2  0  0  0
M  END
> <# Confs.>
25

> <Pharmacophore Match>
(1YET) [A] GDM275

> <Matching Features>
||||HBA:495067246627921590|HBA:495067385280122077|HBA:495067408768422079|HBA:495067414144822081

> <Relative Pharmacophore-Fit Score>
0.51

> <Score>
0.50981086

> <Source Database>
conformers.ldb

> <Active/Decoy>
unknown

> <Mol. Index>
45

$$$$
76
XX    ILIB11302300363D

 59 59  0  0  1  0              1 V2000
   38.4871  -45.5546   65.3081 C   0  0  0  0  0
   37.6201  -46.7645   65.1362 C   0  0  0  0  0
   36.5667  -46.4715   65.0832 H   0  0  0  0  0
   37.7312  -47.4884   65.9453 H   0  0  0  0  0
   37.8789  -47.2888   64.2105 H   0  0  0  0  0
   39.1349  -45.1918   66.4309 C   0  0  0  0  0
   39.1591  -45.9249   67.7395 C   0  0  0  0  0
   40.5029  -46.6225   67.9204 C   0  0  0  0  0
   40.5376  -47.8218   68.8721 C   0  0  0  0  0
   41.8481  -47.8242   69.5207 N   0  0  0  0  0
   41.9162  -48.6251   70.1478 H   0  0  0  0  0
   42.5847  -47.9465   68.8284 H   0  0  0  0  0
   40.2062  -49.1601   68.1832 C   0  0  0  0  0
   38.7927  -49.1748   67.9458 O   0  0  0  0  0
   38.5765  -50.0303   67.5368 H   0  0  0  0  0
   40.9226  -49.4625   66.8594 C   0  0  0  0  0
   40.3901  -50.6817   66.3341 O   0  0  0  0  0
   40.7325  -50.7853   65.4298 H   0  0  0  0  0
   42.4063  -49.7592   67.0099 C   0  0  0  0  0
   43.3718  -48.9896   66.1323 C   0  0  0  0  0
   43.1167  -49.1250   64.6417 C   0  0  0  0  0
   43.5259  -47.9863   63.7040 C   0  0  0  0  0
   44.9837  -47.9533   63.6970 N   0  0  0  0  0
   45.3261  -47.5833   64.5833 H   0  0  0  0  0
   45.3109  -47.3059   62.9824 H   0  0  0  0  0
   42.8930  -46.6455   64.0869 C   0  0  0  0  0
   41.4752  -46.8612   64.1651 O   0  0  0  0  0
   41.0822  -46.0606   64.5490 H   0  0  0  0  0
   43.1486  -45.4859   63.1035 C   0  0  0  0  0
   42.4589  -45.6971   61.8911 O   0  0  0  0  0
   43.2527  -46.4170   60.9457 C   0  0  0  0  0
   42.6908  -46.4787   60.0087 H   0  0  0  0  0
   44.1933  -45.8776   60.7412 H   0  0  0  0  0
   43.4638  -47.4206   61.2977 H   0  0  0  0  0
   42.7101  -44.1480   63.7526 C   0  0  0  0  0
   41.7781  -43.2045   63.0066 C   0  0  0  0  0
   42.3393  -42.8462   61.7652 O   0  0  0  0  0
   42.3480  -43.6356   61.1984 H   0  0  0  0  0
   40.3528  -43.6927   62.8383 C   0  0  0  0  0
   39.9307  -44.2589   64.0082 O   0  0  0  0  0
   38.6539  -44.7257   64.0744 C   0  0  0  0  0
   37.7685  -44.5955   63.2422 O   0  0  0  0  0
   39.7063  -43.5618   61.8084 O   0  0  0  0  0
   41.7134  -42.2796   63.5917 H   0  0  0  0  0
   43.1114  -43.8393   64.8797 O   0  0  0  0  0
   44.2243  -45.3455   62.9305 H   0  0  0  0  0
   43.2228  -46.3513   65.0900 H   0  0  0  0  0
   43.1723  -48.2845   62.7099 H   0  0  0  0  0
   42.6306  -50.1599   64.1772 O   0  0  0  0  0
   43.3253  -47.9489   66.4498 H   0  0  0  0  0
   44.3868  -49.3506   66.3283 H   0  0  0  0  0
   42.8167  -50.5951   67.8172 O   0  0  0  0  0
   40.7359  -48.6783   66.1205 H   0  0  0  0  0
   40.3869  -49.9764   68.8929 H   0  0  0  0  0
   39.7953  -47.6218   69.6543 H   0  0  0  0  0
   41.5205  -46.2164   67.3544 O   0  0  0  0  0
   38.3484  -46.6523   67.8144 H   0  0  0  0  0
   39.0305  -45.2137   68.5637 H   0  0  0  0  0
   39.7259  -44.2762   66.4304 H   0  0  0  0  0
  1  2  1  0  0  0
  1  6  2  0  0  0
  1 41  1  0  0  0
  2  3  1  0  0  0
  2  4  1  0  0  0
  2  5  1  0  0  0
  6  7  1  0  0  0
  6 59  1  0  0  0
  7  8  1  0  0  0
  7 57  1  0  0  0
  7 58  1  0  0  0
  8  9  1  0  0  0
  8 56  2  0  0  0
  9 10  1  0  0  0
  9 13  1  0  0  0
  9 55  1  0  0  0
 10 11  1  0  0  0
 10 12  1  0  0  0
 13 14  1  0  0  0
 13 16  1  0  0  0
 13 54  1  0  0  0
 14 15  1  0  0  0
 16 17  1  0  0  0
 16 19  1  0  0  0
 16 53  1  0  0  0
 17 18  1  0  0  0
 19 20  1  0  0  0
 19 52  2  0  0  0
 20 21  1  0  0  0
 20 50  1  0  0  0
 20 51  1  0  0  0
 21 22  1  0  0  0
 21 49  2  0  0  0
 22 23  1  0  0  0
 22 26  1  0  0  0
 22 48  1  0  0  0
 23 24  1  0  0  0
 23 25  1  0  0  0
 26 27  1  0  0  0
 26 29  1  0  0  0
 26 47  1  0  0  0
 27 28  1  0  0  0
 29 30  1  0  0  0
 29 35  1  0  0  0
 29 46  1  0  0  0
 30 31  1  0  0  0
 31 32  1  0  0  0
 31 33  1  0  0  0
 31 34  1  0  0  0
 35 36  1  0  0  0
 35 45  2  0  0  0
 36 37  1  0  0  0
 36 39  1  0  0  0
 36 44  1  0  0  0
 37 38  1  0  0  0
 39 40  1  0  0  0
 39 43  2  0  0  0
 40 41  1  0  0  0
 41 42  2  0  0  0
M  END
> <# Confs.>
25

> <Pharmacophore Match>
(1YET) [A] GDM275

> <Matching Features>
||||HBA:495067246627921590|HBA:495067385280122077|HBA:495067408768422079|HBA:495067414144822081

> <Relative Pharmacophore-Fit Score>
0.49

> <Score>
0.49241093

> <Source Database>
conformers.ldb

> <Active/Decoy>
unknown

> <Mol. Index>
79

$$$$
75
XX    ILIB11302300363D

 59 59  0  0  1  0              1 V2000
   40.7212  -49.7493   67.5746 C   0  0  0  0  0
   39.3838  -49.8873   67.8470 O   0  0  0  0  0
   38.9280  -49.0561   68.1001 H   0  0  0  0  0
   41.4273  -50.6804   67.2573 O   0  0  0  0  0
   41.1758  -48.3139   67.7360 C   0  0  0  0  0
   42.2510  -48.1541   66.8171 O   0  0  0  0  0
   43.5176  -48.1138   67.2910 C   0  0  0  0  0
   44.5083  -47.7867   66.2162 C   0  0  0  0  0
   45.9109  -47.5663   66.7105 C   0  0  0  0  0
   46.5910  -47.2054   65.9359 H   0  0  0  0  0
   45.9176  -46.8168   67.5089 H   0  0  0  0  0
   46.3228  -48.4993   67.1086 H   0  0  0  0  0
   44.1258  -47.6790   64.9295 C   0  0  0  0  0
   45.0045  -47.3609   63.7565 C   0  0  0  0  0
   45.0607  -45.8609   63.4873 C   0  0  0  0  0
   45.7097  -45.4384   62.1693 C   0  0  0  0  0
   46.4552  -44.2056   62.4283 N   0  0  0  0  0
   46.9262  -43.9080   61.5755 H   0  0  0  0  0
   47.1897  -44.3885   63.1104 H   0  0  0  0  0
   44.7188  -45.2579   61.0070 C   0  0  0  0  0
   44.1806  -46.5300   60.6464 O   0  0  0  0  0
   43.5781  -46.3901   59.8975 H   0  0  0  0  0
   43.6042  -44.2176   61.1976 C   0  0  0  0  0
   42.9806  -43.9986   59.9337 O   0  0  0  0  0
   42.4337  -43.2000   60.0062 H   0  0  0  0  0
   42.4646  -44.6074   62.1337 C   0  0  0  0  0
   41.7257  -43.4610   62.7956 C   0  0  0  0  0
   40.6129  -43.8924   63.7280 C   0  0  0  0  0
   40.9988  -44.2245   65.1677 C   0  0  0  0  0
   40.6833  -43.0383   65.9548 N   0  0  0  0  0
   39.6823  -42.8488   65.9166 H   0  0  0  0  0
   41.1544  -42.2226   65.5684 H   0  0  0  0  0
   40.2735  -45.4933   65.6686 C   0  0  0  0  0
   40.6877  -46.5870   64.8457 O   0  0  0  0  0
   40.3416  -46.4338   63.9502 H   0  0  0  0  0
   40.6138  -45.8404   67.1329 C   0  0  0  0  0
   39.9452  -44.9343   67.9950 O   0  0  0  0  0
   40.6568  -44.7056   69.2045 C   0  0  0  0  0
   41.6308  -44.2492   69.0038 H   0  0  0  0  0
   40.7865  -45.6421   69.7552 H   0  0  0  0  0
   40.0723  -44.0175   69.8209 H   0  0  0  0  0
   40.1200  -47.2526   67.4646 C   0  0  0  0  0
   38.9140  -47.4844   67.5696 O   0  0  0  0  0
   41.6959  -45.7735   67.2936 H   0  0  0  0  0
   39.1868  -45.3847   65.5579 H   0  0  0  0  0
   42.0790  -44.4065   65.1937 H   0  0  0  0  0
   39.4509  -43.9717   63.3271 O   0  0  0  0  0
   42.4382  -42.8497   63.3572 H   0  0  0  0  0
   41.2852  -42.8307   62.0153 H   0  0  0  0  0
   42.1306  -45.7778   62.3095 O   0  0  0  0  0
   44.0366  -43.2673   61.5297 H   0  0  0  0  0
   45.3043  -44.9483   60.1283 H   0  0  0  0  0
   46.4334  -46.2188   61.9047 H   0  0  0  0  0
   44.6348  -45.0345   64.2969 O   0  0  0  0  0
   46.0255  -47.7298   63.8954 H   0  0  0  0  0
   44.5960  -47.8651   62.8751 H   0  0  0  0  0
   43.0886  -47.8465   64.6525 H   0  0  0  0  0
   43.8495  -48.2917   68.4563 O   0  0  0  0  0
   41.4862  -48.1767   68.7868 H   0  0  0  0  0
  1  2  1  0  0  0
  1  4  2  0  0  0
  1  5  1  0  0  0
  2  3  1  0  0  0
  5  6  1  0  0  0
  5 42  1  0  0  0
  5 59  1  0  0  0
  6  7  1  0  0  0
  7  8  1  0  0  0
  7 58  2  0  0  0
  8  9  1  0  0  0
  8 13  2  0  0  0
  9 10  1  0  0  0
  9 11  1  0  0  0
  9 12  1  0  0  0
 13 14  1  0  0  0
 13 57  1  0  0  0
 14 15  1  0  0  0
 14 55  1  0  0  0
 14 56  1  0  0  0
 15 16  1  0  0  0
 15 54  2  0  0  0
 16 17  1  0  0  0
 16 20  1  0  0  0
 16 53  1  0  0  0
 17 18  1  0  0  0
 17 19  1  0  0  0
 20 21  1  0  0  0
 20 23  1  0  0  0
 20 52  1  0  0  0
 21 22  1  0  0  0
 23 24  1  0  0  0
 23 26  1  0  0  0
 23 51  1  0  0  0
 24 25  1  0  0  0
 26 27  1  0  0  0
 26 50  2  0  0  0
 27 28  1  0  0  0
 27 48  1  0  0  0
 27 49  1  0  0  0
 28 29  1  0  0  0
 28 47  2  0  0  0
 29 30  1  0  0  0
 29 33  1  0  0  0
 29 46  1  0  0  0
 30 31  1  0  0  0
 30 32  1  0  0  0
 33 34  1  0  0  0
 33 36  1  0  0  0
 33 45  1  0  0  0
 34 35  1  0  0  0
 36 37  1  0  0  0
 36 42  1  0  0  0
 36 44  1  0  0  0
 37 38  1  0  0  0
 38 39  1  0  0  0
 38 40  1  0  0  0
 38 41  1  0  0  0
 42 43  2  0  0  0
M  END
> <# Confs.>
25

> <Pharmacophore Match>
(1YET) [A] GDM275

> <Matching Features>
||||HBA:495067246627921590|HBA:495067385280122077|HBA:495067408768422079|HBA:495067414144822081

> <Relative Pharmacophore-Fit Score>
0.49

> <Score>
0.48994777

> <Source Database>
conformers.ldb

> <Active/Decoy>
unknown

> <Mol. Index>
78

$$$$
109
XX    ILIB11302300363D

 51 51  0  0  1  0              1 V2000
   42.5777  -44.0573   64.0676 O   0  0  0  0  0
   41.5722  -44.6284   63.2150 C   0  0  0  0  0
   40.5056  -45.1870   64.1272 C   0  0  0  0  0
   40.6128  -45.0962   65.3518 O   0  0  0  0  0
   39.3213  -45.8871   63.5106 C   0  0  0  0  0
   38.7543  -46.9854   64.3917 C   0  0  0  0  0
   37.6328  -47.6057   63.7597 O   0  0  0  0  0
   37.0094  -46.9060   63.5004 H   0  0  0  0  0
   39.7141  -48.0761   64.8848 C   0  0  0  0  0
   39.0646  -49.1388   65.7782 C   0  0  0  0  0
   38.0221  -49.7993   65.0796 O   0  0  0  0  0
   37.4204  -49.1190   64.7323 H   0  0  0  0  0
   39.9943  -50.1782   66.4090 C   0  0  0  0  0
   40.9855  -49.5947   67.2356 O   0  0  0  0  0
   40.5494  -49.0877   67.9398 H   0  0  0  0  0
   39.2254  -51.2193   67.1886 C   0  0  0  0  0
   38.5189  -50.9023   68.1423 O   0  0  0  0  0
   39.3675  -52.6729   66.7776 C   0  0  0  0  0
   39.2028  -53.5219   67.8903 O   0  0  0  0  0
   38.3243  -53.3564   68.2769 H   0  0  0  0  0
   38.4179  -53.1055   65.6952 C   0  0  0  0  0
   38.9667  -52.9146   64.4686 O   0  0  0  0  0
   38.3637  -53.1983   63.7497 H   0  0  0  0  0
   37.3130  -53.5933   65.8738 O   0  0  0  0  0
   40.3867  -52.8082   66.3988 H   0  0  0  0  0
   40.5352  -50.7018   65.6120 H   0  0  0  0  0
   38.5788  -48.6071   66.6200 H   0  0  0  0  0
   40.4503  -48.7402   63.7143 C   0  0  0  0  0
   41.1934  -49.4554   64.0840 H   0  0  0  0  0
   40.9829  -48.0023   63.1057 H   0  0  0  0  0
   39.7607  -49.2836   63.0614 H   0  0  0  0  0
   40.4983  -47.5634   65.4803 H   0  0  0  0  0
   38.3408  -46.4910   65.2960 H   0  0  0  0  0
   39.6666  -46.3241   62.5582 H   0  0  0  0  0
   38.5594  -45.1439   63.2552 H   0  0  0  0  0
   41.0686  -43.5433   62.2782 C   0  0  0  0  0
   42.0926  -42.6104   61.6723 C   0  0  0  0  0
   43.3453  -43.3547   61.3331 C   0  0  0  0  0
   44.1702  -43.9497   62.2182 C   0  0  0  0  0
   43.8648  -43.8779   63.6695 C   0  0  0  0  0
   44.7635  -43.6753   64.4813 O   0  0  0  0  0
   45.3610  -44.5815   61.9258 O   0  0  0  0  0
   45.7155  -44.5802   60.5462 C   0  0  0  0  0
   46.7255  -44.9895   60.4599 H   0  0  0  0  0
   45.7248  -43.5633   60.1415 H   0  0  0  0  0
   45.0411  -45.2231   59.9710 H   0  0  0  0  0
   43.5845  -43.3696   60.2719 H   0  0  0  0  0
   42.2934  -41.7879   62.3662 H   0  0  0  0  0
   41.6712  -42.1816   60.7560 H   0  0  0  0  0
   39.8712  -43.3989   62.0297 O   0  0  0  0  0
   41.9901  -45.4663   62.6454 H   0  0  0  0  0
  1  2  1  0  0  0
  1 40  1  0  0  0
  2  3  1  0  0  0
  2 36  1  0  0  0
  2 51  1  0  0  0
  3  4  2  0  0  0
  3  5  1  0  0  0
  5  6  1  0  0  0
  5 34  1  0  0  0
  5 35  1  0  0  0
  6  7  1  0  0  0
  6  9  1  0  0  0
  6 33  1  0  0  0
  7  8  1  0  0  0
  9 10  1  0  0  0
  9 28  1  0  0  0
  9 32  1  0  0  0
 10 11  1  0  0  0
 10 13  1  0  0  0
 10 27  1  0  0  0
 11 12  1  0  0  0
 13 14  1  0  0  0
 13 16  1  0  0  0
 13 26  1  0  0  0
 14 15  1  0  0  0
 16 17  2  0  0  0
 16 18  1  0  0  0
 18 19  1  0  0  0
 18 21  1  0  0  0
 18 25  1  0  0  0
 19 20  1  0  0  0
 21 22  1  0  0  0
 21 24  2  0  0  0
 22 23  1  0  0  0
 28 29  1  0  0  0
 28 30  1  0  0  0
 28 31  1  0  0  0
 36 37  1  0  0  0
 36 50  2  0  0  0
 37 38  1  0  0  0
 37 48  1  0  0  0
 37 49  1  0  0  0
 38 39  2  0  0  0
 38 47  1  0  0  0
 39 40  1  0  0  0
 39 42  1  0  0  0
 40 41  2  0  0  0
 42 43  1  0  0  0
 43 44  1  0  0  0
 43 45  1  0  0  0
 43 46  1  0  0  0
M  END
> <# Confs.>
25

> <Pharmacophore Match>
(1YET) [A] GDM275

> <Matching Features>
|||H:495067340233021826|HBA:495067246627921590|HBA:495067385280122077|HBA:495067408768422079|HBA:495067414144822081

> <Relative Pharmacophore-Fit Score>
0.63

> <Score>
0.629094

> <Source Database>
conformers.ldb

> <Active/Decoy>
unknown

> <Mol. Index>
104

$$$$
110
XX    ILIB11302300363D

 51 51  0  0  1  0              1 V2000
   39.1568  -46.5640   65.6711 C   0  0  0  0  0
   40.2745  -45.5287   65.4225 C   0  0  0  0  0
   40.4252  -45.3474   63.9968 O   0  0  0  0  0
   39.7138  -44.3666   63.3892 C   0  0  0  0  0
   40.2458  -44.1944   62.0145 C   0  0  0  0  0
   39.4002  -44.2921   60.9281 O   0  0  0  0  0
   38.0584  -43.8943   61.1839 C   0  0  0  0  0
   37.5223  -43.8808   60.2302 H   0  0  0  0  0
   37.5579  -44.6130   61.8426 H   0  0  0  0  0
   38.0194  -42.8859   61.6090 H   0  0  0  0  0
   41.5351  -43.8529   61.8404 C   0  0  0  0  0
   42.5519  -43.5728   62.9111 C   0  0  0  0  0
   43.2475  -44.8493   63.3667 C   0  0  0  0  0
   43.7405  -44.9045   64.8001 C   0  0  0  0  0
   44.6513  -43.8332   64.9475 O   0  0  0  0  0
   45.1810  -44.0082   65.7444 H   0  0  0  0  0
   42.6471  -44.8121   65.8538 C   0  0  0  0  0
   41.6531  -45.9613   65.9383 C   0  0  0  0  0
   41.6133  -46.2738   66.9872 H   0  0  0  0  0
   42.0488  -46.8032   65.3591 H   0  0  0  0  0
   42.5613  -43.8498   66.6182 O   0  0  0  0  0
   44.2899  -45.8406   64.9506 H   0  0  0  0  0
   43.4335  -45.7999   62.6053 O   0  0  0  0  0
   43.3143  -42.8846   62.5291 H   0  0  0  0  0
   42.0786  -43.0801   63.7662 H   0  0  0  0  0
   41.8883  -43.7156   60.8201 H   0  0  0  0  0
   38.7886  -43.7174   63.8492 O   0  0  0  0  0
   39.9994  -44.5714   65.8843 H   0  0  0  0  0
   39.3827  -47.9636   65.0796 C   0  0  0  0  0
   39.5266  -47.8648   63.6596 O   0  0  0  0  0
   38.6792  -47.5536   63.2996 H   0  0  0  0  0
   38.4181  -49.0905   65.4121 C   0  0  0  0  0
   37.1103  -48.7340   64.9995 O   0  0  0  0  0
   37.1202  -48.6422   64.0318 H   0  0  0  0  0
   38.8328  -50.4238   64.8520 C   0  0  0  0  0
   40.1702  -50.9970   65.2773 C   0  0  0  0  0
   41.1600  -50.5394   64.3728 O   0  0  0  0  0
   41.0302  -51.0120   63.5327 H   0  0  0  0  0
   40.6129  -50.5883   66.6541 C   0  0  0  0  0
   39.7146  -50.9911   67.5885 O   0  0  0  0  0
   39.9799  -50.7170   68.4931 H   0  0  0  0  0
   41.6228  -49.9511   66.9149 O   0  0  0  0  0
   40.1447  -52.0899   65.2210 H   0  0  0  0  0
   38.1115  -51.0013   64.0364 O   0  0  0  0  0
   38.3838  -49.2031   66.5148 H   0  0  0  0  0
   40.3782  -48.2993   65.4409 H   0  0  0  0  0
   38.8916  -46.6793   67.1839 C   0  0  0  0  0
   38.6565  -45.6984   67.6106 H   0  0  0  0  0
   39.7530  -47.0845   67.7237 H   0  0  0  0  0
   38.0359  -47.3359   67.3740 H   0  0  0  0  0
   38.2473  -46.1771   65.2064 H   0  0  0  0  0
  1  2  1  0  0  0
  1 29  1  0  0  0
  1 47  1  0  0  0
  1 51  1  0  0  0
  2  3  1  0  0  0
  2 18  1  0  0  0
  2 28  1  0  0  0
  3  4  1  0  0  0
  4  5  1  0  0  0
  4 27  2  0  0  0
  5  6  1  0  0  0
  5 11  2  0  0  0
  6  7  1  0  0  0
  7  8  1  0  0  0
  7  9  1  0  0  0
  7 10  1  0  0  0
 11 12  1  0  0  0
 11 26  1  0  0  0
 12 13  1  0  0  0
 12 24  1  0  0  0
 12 25  1  0  0  0
 13 14  1  0  0  0
 13 23  2  0  0  0
 14 15  1  0  0  0
 14 17  1  0  0  0
 14 22  1  0  0  0
 15 16  1  0  0  0
 17 18  1  0  0  0
 17 21  2  0  0  0
 18 19  1  0  0  0
 18 20  1  0  0  0
 29 30  1  0  0  0
 29 32  1  0  0  0
 29 46  1  0  0  0
 30 31  1  0  0  0
 32 33  1  0  0  0
 32 35  1  0  0  0
 32 45  1  0  0  0
 33 34  1  0  0  0
 35 36  1  0  0  0
 35 44  2  0  0  0
 36 37  1  0  0  0
 36 39  1  0  0  0
 36 43  1  0  0  0
 37 38  1  0  0  0
 39 40  1  0  0  0
 39 42  2  0  0  0
 40 41  1  0  0  0
 47 48  1  0  0  0
 47 49  1  0  0  0
 47 50  1  0  0  0
M  END
> <# Confs.>
25

> <Pharmacophore Match>
(1YET) [A] GDM275

> <Matching Features>
||||HBA:495067246627921590|HBA:495067385280122077|HBA:495067408768422079|HBA:495067414144822081

> <Relative Pharmacophore-Fit Score>
0.50

> <Score>
0.50238764

> <Source Database>
conformers.ldb

> <Active/Decoy>
unknown

> <Mol. Index>
105

$$$$
85
XX    ILIB11302300363D

 37 37  0  0  1  0              1 V2000
   41.4212  -44.9648   65.1175 O   0  0  0  0  0
   40.2587  -45.6190   64.5872 C   0  0  0  0  0
   39.4976  -44.6502   63.6939 C   0  0  0  0  0
   40.3149  -43.8010   62.7377 C   0  0  0  0  0
   39.4603  -43.2537   61.7546 O   0  0  0  0  0
   39.0788  -43.9897   61.2468 H   0  0  0  0  0
   41.4509  -44.5474   62.0674 C   0  0  0  0  0
   42.5132  -45.1756   62.9389 C   0  0  0  0  0
   42.5448  -44.7626   64.3853 C   0  0  0  0  0
   43.5529  -44.2729   64.8911 O   0  0  0  0  0
   43.4808  -44.8918   62.5052 H   0  0  0  0  0
   42.4403  -46.2654   62.8799 H   0  0  0  0  0
   41.5185  -44.6548   60.8416 O   0  0  0  0  0
   40.7365  -42.9594   63.2965 H   0  0  0  0  0
   38.2701  -44.5586   63.7390 O   0  0  0  0  0
   39.4656  -46.0838   65.7834 C   0  0  0  0  0
   39.5151  -45.4530   66.8487 O   0  0  0  0  0
   38.5716  -47.3160   65.6207 C   0  0  0  0  0
   39.3118  -48.5890   65.9455 C   0  0  0  0  0
   39.4220  -49.4700   65.0941 O   0  0  0  0  0
   39.9196  -48.7329   67.3309 C   0  0  0  0  0
   39.3681  -49.8360   68.0156 O   0  0  0  0  0
   39.5226  -50.6358   67.4840 H   0  0  0  0  0
   41.4166  -48.8695   67.3255 C   0  0  0  0  0
   41.9969  -47.7828   66.7573 O   0  0  0  0  0
   42.9753  -47.8508   66.7514 H   0  0  0  0  0
   42.0458  -49.8084   67.7897 O   0  0  0  0  0
   39.6711  -47.8280   67.8960 H   0  0  0  0  0
   37.3136  -47.1265   66.4819 C   0  0  0  0  0
   36.3308  -48.2926   66.4054 C   0  0  0  0  0
   35.7563  -48.5520   64.7412 Cl  0  0  0  0  0
   35.4560  -48.1157   67.0384 H   0  0  0  0  0
   36.8116  -49.2187   66.7345 H   0  0  0  0  0
   36.7802  -46.2304   66.1367 H   0  0  0  0  0
   37.5846  -46.9276   67.5266 H   0  0  0  0  0
   38.2862  -47.3663   64.5700 H   0  0  0  0  0
   40.5434  -46.5131   64.0233 H   0  0  0  0  0
  1  2  1  0  0  0
  1  9  1  0  0  0
  2  3  1  0  0  0
  2 16  1  0  0  0
  2 37  1  0  0  0
  3  4  1  0  0  0
  3 15  2  0  0  0
  4  5  1  0  0  0
  4  7  1  0  0  0
  4 14  1  0  0  0
  5  6  1  0  0  0
  7  8  1  0  0  0
  7 13  2  0  0  0
  8  9  1  0  0  0
  8 11  1  0  0  0
  8 12  1  0  0  0
  9 10  2  0  0  0
 16 17  2  0  0  0
 16 18  1  0  0  0
 18 19  1  0  0  0
 18 29  1  0  0  0
 18 36  1  0  0  0
 19 20  2  0  0  0
 19 21  1  0  0  0
 21 22  1  0  0  0
 21 24  1  0  0  0
 21 28  1  0  0  0
 22 23  1  0  0  0
 24 25  1  0  0  0
 24 27  2  0  0  0
 25 26  1  0  0  0
 29 30  1  0  0  0
 29 34  1  0  0  0
 29 35  1  0  0  0
 30 31  1  0  0  0
 30 32  1  0  0  0
 30 33  1  0  0  0
M  END
> <# Confs.>
25

> <Pharmacophore Match>
(1YET) [A] GDM275

> <Matching Features>
||||HBA:495067246627921590|HBA:495067385280122077|HBA:495067408768422079|HBA:495067414144822081

> <Relative Pharmacophore-Fit Score>
0.51

> <Score>
0.50528735

> <Source Database>
conformers.ldb

> <Active/Decoy>
unknown

> <Mol. Index>
82

$$$$
104
XX    ILIB11302300363D

 63 63  0  0  1  0              1 V2000
   40.5559  -49.5916   67.4680 C   0  0  0  0  0
   39.3876  -49.8165   68.1240 O   0  0  0  0  0
   39.5301  -50.2818   68.9765 H   0  0  0  0  0
   41.6504  -49.9154   67.9055 O   0  0  0  0  0
   40.3171  -48.8592   66.1768 C   0  0  0  0  0
   41.5551  -48.6286   65.4983 O   0  0  0  0  0
   42.1142  -49.6767   64.8335 C   0  0  0  0  0
   41.7256  -50.8365   64.8728 O   0  0  0  0  0
   43.2808  -49.2480   64.0030 C   0  0  0  0  0
   43.9947  -50.2334   63.3687 O   0  0  0  0  0
   43.2423  -51.0178   62.4492 C   0  0  0  0  0
   42.4286  -51.5433   62.9569 H   0  0  0  0  0
   43.9133  -51.7666   62.0191 H   0  0  0  0  0
   42.8566  -50.3997   61.6313 H   0  0  0  0  0
   43.6332  -47.9565   63.8816 C   0  0  0  0  0
   44.7552  -47.4460   63.0288 C   0  0  0  0  0
   45.5934  -46.4863   63.8551 C   0  0  0  0  0
   45.6544  -45.0292   63.3906 C   0  0  0  0  0
   44.2711  -44.3771   63.3425 C   0  0  0  0  0
   43.4944  -44.4711   64.2918 O   0  0  0  0  0
   43.8777  -43.6216   62.1118 C   0  0  0  0  0
   44.8000  -42.7660   61.5335 O   0  0  0  0  0
   45.5745  -42.7217   62.1138 H   0  0  0  0  0
   42.6640  -43.7594   61.5545 C   0  0  0  0  0
   41.5567  -44.7027   61.9522 C   0  0  0  0  0
   40.5115  -44.0371   62.8573 C   0  0  0  0  0
   39.8946  -42.9680   62.1298 O   0  0  0  0  0
   39.2699  -42.5259   62.7295 H   0  0  0  0  0
   39.3981  -44.9650   63.4222 C   0  0  0  0  0
   38.5080  -45.4393   62.3575 N   0  0  0  0  0
   39.0353  -45.9888   61.6816 H   0  0  0  0  0
   37.8068  -46.0662   62.7491 H   0  0  0  0  0
   39.9573  -46.1424   64.2624 C   0  0  0  0  0
   40.4996  -47.1368   63.3901 O   0  0  0  0  0
   39.7663  -47.5249   62.8832 H   0  0  0  0  0
   38.9541  -46.8430   65.2020 C   0  0  0  0  0
   38.0598  -45.8865   65.7463 O   0  0  0  0  0
   36.7795  -46.4367   66.0290 C   0  0  0  0  0
   36.1533  -45.6487   66.4572 H   0  0  0  0  0
   36.3076  -46.7943   65.1077 H   0  0  0  0  0
   36.8561  -47.2525   66.7534 H   0  0  0  0  0
   39.7127  -47.4753   66.3787 C   0  0  0  0  0
   39.8414  -46.8772   67.4500 O   0  0  0  0  0
   38.3930  -47.6231   64.6738 H   0  0  0  0  0
   40.7923  -45.7583   64.8604 H   0  0  0  0  0
   38.7878  -44.3244   64.0682 H   0  0  0  0  0
   41.0235  -43.5722   63.7089 H   0  0  0  0  0
   42.0002  -45.5752   62.4354 H   0  0  0  0  0
   41.0856  -45.0615   61.0294 H   0  0  0  0  0
   42.4470  -43.1576   60.6723 H   0  0  0  0  0
   46.6240  -44.2064   64.2232 C   0  0  0  0  0
   48.0711  -44.6938   64.1752 C   0  0  0  0  0
   49.1373  -43.6721   65.1700 Cl  0  0  0  0  0
   48.4556  -44.6698   63.1521 H   0  0  0  0  0
   48.1472  -45.7202   64.5484 H   0  0  0  0  0
   46.2733  -44.1680   65.2495 H   0  0  0  0  0
   46.5874  -43.1638   63.8407 H   0  0  0  0  0
   46.0471  -45.0726   62.3530 H   0  0  0  0  0
   46.2217  -46.8901   64.8343 O   0  0  0  0  0
   44.3437  -46.9270   62.1575 H   0  0  0  0  0
   45.4114  -48.2378   62.6553 H   0  0  0  0  0
   43.0605  -47.1855   64.3895 H   0  0  0  0  0
   39.6450  -49.4588   65.5517 H   0  0  0  0  0
  1  2  1  0  0  0
  1  4  2  0  0  0
  1  5  1  0  0  0
  2  3  1  0  0  0
  5  6  1  0  0  0
  5 42  1  0  0  0
  5 63  1  0  0  0
  6  7  1  0  0  0
  7  8  2  0  0  0
  7  9  1  0  0  0
  9 10  1  0  0  0
  9 15  2  0  0  0
 10 11  1  0  0  0
 11 12  1  0  0  0
 11 13  1  0  0  0
 11 14  1  0  0  0
 15 16  1  0  0  0
 15 62  1  0  0  0
 16 17  1  0  0  0
 16 60  1  0  0  0
 16 61  1  0  0  0
 17 18  1  0  0  0
 17 59  2  0  0  0
 18 19  1  0  0  0
 18 51  1  0  0  0
 18 58  1  0  0  0
 19 20  2  0  0  0
 19 21  1  0  0  0
 21 22  1  0  0  0
 21 24  2  0  0  0
 22 23  1  0  0  0
 24 25  1  0  0  0
 24 50  1  0  0  0
 25 26  1  0  0  0
 25 48  1  0  0  0
 25 49  1  0  0  0
 26 27  1  0  0  0
 26 29  1  0  0  0
 26 47  1  0  0  0
 27 28  1  0  0  0
 29 30  1  0  0  0
 29 33  1  0  0  0
 29 46  1  0  0  0
 30 31  1  0  0  0
 30 32  1  0  0  0
 33 34  1  0  0  0
 33 36  1  0  0  0
 33 45  1  0  0  0
 34 35  1  0  0  0
 36 37  1  0  0  0
 36 42  1  0  0  0
 36 44  1  0  0  0
 37 38  1  0  0  0
 38 39  1  0  0  0
 38 40  1  0  0  0
 38 41  1  0  0  0
 42 43  2  0  0  0
 51 52  1  0  0  0
 51 56  1  0  0  0
 51 57  1  0  0  0
 52 53  1  0  0  0
 52 54  1  0  0  0
 52 55  1  0  0  0
M  END
> <# Confs.>
25

> <Pharmacophore Match>
(1YET) [A] GDM275

> <Matching Features>
||||HBA:495067246627921590|HBA:495067385280122077|HBA:495067408768422079|HBA:495067414144822081

> <Relative Pharmacophore-Fit Score>
0.50

> <Score>
0.50035995

> <Source Database>
conformers.ldb

> <Active/Decoy>
unknown

> <Mol. Index>
99

$$$$
62
XX    ILIB11302300363D

 53 53  0  0  1  0              1 V2000
   39.1535  -45.5523   63.6965 O   0  0  0  0  0
   37.9711  -45.9500   63.1415 C   0  0  0  0  0
   37.4188  -47.1086   63.9475 C   0  0  0  0  0
   36.3498  -47.7108   63.2450 O   0  0  0  0  0
   36.6974  -48.0506   62.4021 H   0  0  0  0  0
   38.4417  -48.2031   64.2409 C   0  0  0  0  0
   38.6168  -48.6168   65.6983 C   0  0  0  0  0
   38.8758  -47.4407   66.4312 O   0  0  0  0  0
   38.3908  -47.5288   67.7804 C   0  0  0  0  0
   38.6362  -46.5937   68.2912 H   0  0  0  0  0
   37.3048  -47.6602   67.7929 H   0  0  0  0  0
   38.8782  -48.3542   68.3071 H   0  0  0  0  0
   39.7213  -49.6814   65.8816 C   0  0  0  0  0
   39.5633  -50.3223   67.1493 O   0  0  0  0  0
   39.7833  -49.6794   67.8434 H   0  0  0  0  0
   41.1684  -49.1861   65.6912 C   0  0  0  0  0
   42.1092  -50.3033   65.6888 N   0  0  0  0  0
   41.8602  -50.9476   64.9387 H   0  0  0  0  0
   42.0108  -50.8349   66.5535 H   0  0  0  0  0
   41.6749  -48.2322   66.7882 C   0  0  0  0  0
   42.0570  -46.8172   66.3519 C   0  0  0  0  0
   42.4798  -46.0347   67.4511 O   0  0  0  0  0
   41.4054  -45.3389   68.0696 C   0  0  0  0  0
   40.6962  -46.0469   68.5061 H   0  0  0  0  0
   40.8972  -44.6893   67.3513 H   0  0  0  0  0
   41.8157  -44.7184   68.8708 H   0  0  0  0  0
   43.2296  -46.7743   65.3853 C   0  0  0  0  0
   43.3459  -45.5858   64.4319 C   0  0  0  0  0
   43.6376  -44.4212   65.1783 O   0  0  0  0  0
   42.9044  -44.2551   65.7935 H   0  0  0  0  0
   42.1135  -45.4485   63.5129 C   0  0  0  0  0
   42.5703  -45.2323   62.1700 O   0  0  0  0  0
   43.0897  -46.0124   61.9091 H   0  0  0  0  0
   41.1350  -44.3112   63.8694 C   0  0  0  0  0
   41.7200  -43.0689   63.5339 O   0  0  0  0  0
   41.2795  -42.0130   64.3785 C   0  0  0  0  0
   41.6040  -42.1906   65.4089 H   0  0  0  0  0
   40.1911  -41.9108   64.3397 H   0  0  0  0  0
   41.7296  -41.0809   64.0270 H   0  0  0  0  0
   39.8253  -44.5128   63.1153 C   0  0  0  0  0
   39.4656  -43.8387   62.1594 O   0  0  0  0  0
   40.9012  -44.3230   64.9416 H   0  0  0  0  0
   41.5797  -46.4067   63.4828 H   0  0  0  0  0
   44.2331  -45.7776   63.8161 H   0  0  0  0  0
   44.0884  -47.6587   65.3804 O   0  0  0  0  0
   41.1798  -46.3742   65.8750 H   0  0  0  0  0
   41.7606  -48.5888   67.9639 O   0  0  0  0  0
   41.2580  -48.6708   64.7308 H   0  0  0  0  0
   39.5405  -50.4728   65.1426 H   0  0  0  0  0
   37.6444  -49.0585   66.0058 H   0  0  0  0  0
   39.0407  -48.7482   63.3191 O   0  0  0  0  0
   37.0094  -46.7019   64.8767 H   0  0  0  0  0
   37.4098  -45.4620   62.1709 O   0  0  0  0  0
  1  2  1  0  0  0
  1 40  1  0  0  0
  2  3  1  0  0  0
  2 53  2  0  0  0
  3  4  1  0  0  0
  3  6  1  0  0  0
  3 52  1  0  0  0
  4  5  1  0  0  0
  6  7  1  0  0  0
  6 51  2  0  0  0
  7  8  1  0  0  0
  7 13  1  0  0  0
  7 50  1  0  0  0
  8  9  1  0  0  0
  9 10  1  0  0  0
  9 11  1  0  0  0
  9 12  1  0  0  0
 13 14  1  0  0  0
 13 16  1  0  0  0
 13 49  1  0  0  0
 14 15  1  0  0  0
 16 17  1  0  0  0
 16 20  1  0  0  0
 16 48  1  0  0  0
 17 18  1  0  0  0
 17 19  1  0  0  0
 20 21  1  0  0  0
 20 47  2  0  0  0
 21 22  1  0  0  0
 21 27  1  0  0  0
 21 46  1  0  0  0
 22 23  1  0  0  0
 23 24  1  0  0  0
 23 25  1  0  0  0
 23 26  1  0  0  0
 27 28  1  0  0  0
 27 45  2  0  0  0
 28 29  1  0  0  0
 28 31  1  0  0  0
 28 44  1  0  0  0
 29 30  1  0  0  0
 31 32  1  0  0  0
 31 34  1  0  0  0
 31 43  1  0  0  0
 32 33  1  0  0  0
 34 35  1  0  0  0
 34 40  1  0  0  0
 34 42  1  0  0  0
 35 36  1  0  0  0
 36 37  1  0  0  0
 36 38  1  0  0  0
 36 39  1  0  0  0
 40 41  2  0  0  0
M  END
> <# Confs.>
25

> <Pharmacophore Match>
(1YET) [A] GDM275

> <Matching Features>
||||HBA:495067246627921590|HBA:495067385280122077|HBA:495067408768422079|HBA:495067414144822081

> <Relative Pharmacophore-Fit Score>
0.50

> <Score>
0.49867275

> <Source Database>
conformers.ldb

> <Active/Decoy>
unknown

> <Mol. Index>
69

$$$$
117
XX    ILIB11302300363D

 86 85  0  0  1  0              1 V2000
   50.2250  -50.3259   65.1726 C   0  0  0  0  0
   50.0684  -51.0512   64.0354 O   0  0  0  0  0
   49.8135  -50.5242   63.2479 H   0  0  0  0  0
   50.5636  -50.8199   66.2390 O   0  0  0  0  0
   49.9816  -48.8578   64.9447 C   0  0  0  0  0
   50.1600  -48.1592   66.1580 O   0  0  0  0  0
   50.3234  -47.2264   65.9394 H   0  0  0  0  0
   48.5939  -48.5338   64.4209 C   0  0  0  0  0
   47.6223  -49.2343   64.7002 O   0  0  0  0  0
   48.4579  -47.3026   63.5518 C   0  0  0  0  0
   47.0745  -46.6617   63.6860 C   0  0  0  0  0
   46.0581  -47.5869   63.2951 O   0  0  0  0  0
   46.0638  -48.3325   63.9181 H   0  0  0  0  0
   46.7924  -46.0802   65.0770 C   0  0  0  0  0
   47.7395  -45.0717   65.3977 O   0  0  0  0  0
   47.7280  -44.4149   64.6816 H   0  0  0  0  0
   45.4058  -45.4824   65.2162 C   0  0  0  0  0
   44.3023  -46.4075   65.6836 C   0  0  0  0  0
   44.1489  -46.4316   67.1925 C   0  0  0  0  0
   42.7639  -46.7013   67.7388 C   0  0  0  0  0
   42.7661  -46.6956   69.1532 O   0  0  0  0  0
   42.5139  -45.4062   69.6969 C   0  0  0  0  0
   43.2651  -44.6865   69.3561 H   0  0  0  0  0
   42.5653  -45.4769   70.7867 H   0  0  0  0  0
   41.5126  -45.0651   69.4170 H   0  0  0  0  0
   42.2128  -48.0365   67.2373 C   0  0  0  0  0
   43.0711  -49.1107   67.6710 O   0  0  0  0  0
   43.0529  -49.1560   68.6412 H   0  0  0  0  0
   40.7699  -48.2948   67.6599 C   0  0  0  0  0
   40.6913  -48.3006   69.1229 N   0  0  0  0  0
   39.7218  -48.3907   69.4247 H   0  0  0  0  0
   41.1929  -49.0901   69.5007 H   0  0  0  0  0
   40.2124  -49.6226   67.1067 C   0  0  0  0  0
   38.8554  -49.8054   67.5171 O   0  0  0  0  0
   38.3150  -49.1069   67.1125 H   0  0  0  0  0
   40.3595  -49.7717   65.5875 C   0  0  0  0  0
   39.6646  -48.7219   64.7412 C   0  0  0  0  0
   40.2248  -47.8681   63.8606 C   0  0  0  0  0
   39.3487  -46.9216   63.0714 C   0  0  0  0  0
   39.6386  -45.4336   63.2827 C   0  0  0  0  0
   38.7054  -44.5996   62.4476 C   0  0  0  0  0
   39.2699  -43.4224   62.0710 O   0  0  0  0  0
   40.1842  -43.2868   62.4028 H   0  0  0  0  0
   37.5801  -44.9382   62.1067 O   0  0  0  0  0
   39.6356  -44.9399   64.7367 C   0  0  0  0  0
   38.3080  -45.1423   65.4616 C   0  0  0  0  0
   38.3702  -44.7368   66.4766 H   0  0  0  0  0
   37.4877  -44.6305   64.9488 H   0  0  0  0  0
   38.0545  -46.2035   65.5412 H   0  0  0  0  0
   40.4178  -45.4575   65.3075 H   0  0  0  0  0
   39.8797  -43.8693   64.7652 H   0  0  0  0  0
   40.6476  -45.2455   62.8892 H   0  0  0  0  0
   39.4412  -47.1694   62.0070 H   0  0  0  0  0
   38.2967  -47.1029   63.3300 H   0  0  0  0  0
   41.7041  -47.7735   63.5859 C   0  0  0  0  0
   42.1190  -48.0522   62.1387 C   0  0  0  0  0
   41.6494  -49.6918   61.6311 Cl  0  0  0  0  0
   43.2027  -47.9585   62.0133 H   0  0  0  0  0
   41.6322  -47.3460   61.4614 H   0  0  0  0  0
   42.0494  -46.7755   63.8842 H   0  0  0  0  0
   42.2376  -48.4810   64.2347 H   0  0  0  0  0
   38.5820  -48.6789   64.8659 H   0  0  0  0  0
   39.9178  -51.1834   65.1570 C   0  0  0  0  0
   40.7218  -52.3174   65.7909 C   0  0  0  0  0
   42.4488  -52.2010   65.3773 Cl  0  0  0  0  0
   40.3605  -53.2937   65.4549 H   0  0  0  0  0
   40.6420  -52.2773   66.8809 H   0  0  0  0  0
   38.8623  -51.3320   65.4214 H   0  0  0  0  0
   39.9783  -51.2708   64.0637 H   0  0  0  0  0
   41.4310  -49.6665   65.3644 H   0  0  0  0  0
   40.7716  -50.4343   67.5906 H   0  0  0  0  0
   40.1520  -47.4701   67.2840 H   0  0  0  0  0
   42.2791  -48.0407   66.1549 H   0  0  0  0  0
   42.1069  -45.9017   67.3720 H   0  0  0  0  0
   45.1073  -46.2278   67.9402 O   0  0  0  0  0
   44.4927  -47.4273   65.3341 H   0  0  0  0  0
   43.3645  -46.0898   65.2170 H   0  0  0  0  0
   45.1840  -44.3006   64.9483 O   0  0  0  0  0
   46.8752  -46.8740   65.8281 H   0  0  0  0  0
   47.0197  -45.8469   62.9527 H   0  0  0  0  0
   48.8179  -47.6088   62.1002 C   0  0  0  0  0
   48.1020  -48.2892   61.6310 H   0  0  0  0  0
   48.8430  -46.6884   61.5086 H   0  0  0  0  0
   49.8055  -48.0785   62.0362 H   0  0  0  0  0
   49.2057  -46.5911   63.9339 H   0  0  0  0  0
   50.7211  -48.5051   64.2190 H   0  0  0  0  0
  1  2  1  0  0  0
  1  4  2  0  0  0
  1  5  1  0  0  0
  2  3  1  0  0  0
  5  6  1  0  0  0
  5  8  1  0  0  0
  5 86  1  0  0  0
  6  7  1  0  0  0
  8  9  2  0  0  0
  8 10  1  0  0  0
 10 11  1  0  0  0
 10 81  1  0  0  0
 10 85  1  0  0  0
 11 12  1  0  0  0
 11 14  1  0  0  0
 11 80  1  0  0  0
 12 13  1  0  0  0
 14 15  1  0  0  0
 14 17  1  0  0  0
 14 79  1  0  0  0
 15 16  1  0  0  0
 17 18  1  0  0  0
 17 78  2  0  0  0
 18 19  1  0  0  0
 18 76  1  0  0  0
 18 77  1  0  0  0
 19 20  1  0  0  0
 19 75  2  0  0  0
 20 21  1  0  0  0
 20 26  1  0  0  0
 20 74  1  0  0  0
 21 22  1  0  0  0
 22 23  1  0  0  0
 22 24  1  0  0  0
 22 25  1  0  0  0
 26 27  1  0  0  0
 26 29  1  0  0  0
 26 73  1  0  0  0
 27 28  1  0  0  0
 29 30  1  0  0  0
 29 33  1  0  0  0
 29 72  1  0  0  0
 30 31  1  0  0  0
 30 32  1  0  0  0
 33 34  1  0  0  0
 33 36  1  0  0  0
 33 71  1  0  0  0
 34 35  1  0  0  0
 36 37  1  0  0  0
 36 63  1  0  0  0
 36 70  1  0  0  0
 37 38  2  0  0  0
 37 62  1  0  0  0
 38 39  1  0  0  0
 38 55  1  0  0  0
 39 40  1  0  0  0
 39 53  1  0  0  0
 39 54  1  0  0  0
 40 41  1  0  0  0
 40 45  1  0  0  0
 40 52  1  0  0  0
 41 42  1  0  0  0
 41 44  2  0  0  0
 42 43  1  0  0  0
 45 46  1  0  0  0
 45 50  1  0  0  0
 45 51  1  0  0  0
 46 47  1  0  0  0
 46 48  1  0  0  0
 46 49  1  0  0  0
 55 56  1  0  0  0
 55 60  1  0  0  0
 55 61  1  0  0  0
 56 57  1  0  0  0
 56 58  1  0  0  0
 56 59  1  0  0  0
 63 64  1  0  0  0
 63 68  1  0  0  0
 63 69  1  0  0  0
 64 65  1  0  0  0
 64 66  1  0  0  0
 64 67  1  0  0  0
 81 82  1  0  0  0
 81 83  1  0  0  0
 81 84  1  0  0  0
M  END
> <# Confs.>
25

> <Pharmacophore Match>
(1YET) [A] GDM275

> <Matching Features>
|||H:495067340233021826|HBA:495067246627921590|HBA:495067385280122077|HBA:495067408768422079|HBA:495067414144822081

> <Relative Pharmacophore-Fit Score>
0.62

> <Score>
0.6230674

> <Source Database>
conformers.ldb

> <Active/Decoy>
unknown

> <Mol. Index>
113

$$$$
96
XX    ILIB11302300363D

 67 67  0  0  1  0              1 V2000
   47.7921  -46.5157   65.7858 C   0  0  0  0  0
   48.2147  -45.6195   66.7122 O   0  0  0  0  0
   48.5481  -46.0601   67.5217 H   0  0  0  0  0
   47.8454  -47.7277   65.9428 O   0  0  0  0  0
   47.3048  -45.8204   64.5450 C   0  0  0  0  0
   46.8772  -46.7975   63.6139 O   0  0  0  0  0
   46.1318  -47.2811   64.0088 H   0  0  0  0  0
   46.1653  -44.8485   64.7890 C   0  0  0  0  0
   45.7205  -44.6819   65.9274 O   0  0  0  0  0
   45.6050  -44.0655   63.6225 C   0  0  0  0  0
   45.1387  -42.8376   64.1542 O   0  0  0  0  0
   46.1406  -41.8286   64.1516 C   0  0  0  0  0
   45.7060  -40.9119   64.5596 H   0  0  0  0  0
   46.9820  -42.1254   64.7848 H   0  0  0  0  0
   46.4868  -41.6248   63.1340 H   0  0  0  0  0
   44.4320  -44.6964   62.8951 C   0  0  0  0  0
   43.9844  -45.7858   63.2596 O   0  0  0  0  0
   43.8025  -43.9440   61.7294 C   0  0  0  0  0
   42.3306  -44.2403   61.5664 C   0  0  0  0  0
   41.9036  -44.7469   60.5186 O   0  0  0  0  0
   41.3796  -43.9453   62.6955 C   0  0  0  0  0
   40.9024  -42.6250   62.5650 O   0  0  0  0  0
   40.4092  -42.5683   61.7362 H   0  0  0  0  0
   40.1922  -44.8864   62.7910 C   0  0  0  0  0
   39.0435  -44.4464   62.7054 O   0  0  0  0  0
   40.4376  -46.3706   62.9532 C   0  0  0  0  0
   39.1595  -46.9812   62.9995 O   0  0  0  0  0
   38.6879  -47.3559   61.7111 C   0  0  0  0  0
   37.7106  -47.8302   61.8280 H   0  0  0  0  0
   38.5713  -46.4712   61.0774 H   0  0  0  0  0
   39.3672  -48.0706   61.2383 H   0  0  0  0  0
   41.1672  -46.7954   64.2134 C   0  0  0  0  0
   41.5271  -45.9543   65.0399 O   0  0  0  0  0
   41.4227  -48.2663   64.4524 C   0  0  0  0  0
   42.8304  -48.4497   64.5404 O   0  0  0  0  0
   42.9910  -49.3813   64.7711 H   0  0  0  0  0
   40.7560  -48.7684   65.7286 C   0  0  0  0  0
   41.2792  -48.0269   66.8512 O   0  0  0  0  0
   41.4551  -48.7511   67.9860 C   0  0  0  0  0
   40.9792  -47.9600   69.1354 C   0  0  0  0  0
   41.9056  -47.8173   70.1389 O   0  0  0  0  0
   41.4628  -47.0573   71.2554 C   0  0  0  0  0
   41.2093  -46.0321   70.9591 H   0  0  0  0  0
   42.2835  -47.0054   71.9758 H   0  0  0  0  0
   40.6120  -47.5401   71.7478 H   0  0  0  0  0
   39.7055  -47.5067   69.1327 C   0  0  0  0  0
   38.5937  -47.6733   68.1246 C   0  0  0  0  0
   37.3866  -47.8894   68.8600 O   0  0  0  0  0
   36.6430  -47.7864   68.2398 H   0  0  0  0  0
   38.6787  -48.8634   67.1598 C   0  0  0  0  0
   39.2295  -48.5703   65.7577 C   0  0  0  0  0
   38.5319  -49.4416   64.8161 N   0  0  0  0  0
   38.8159  -49.2152   63.8634 H   0  0  0  0  0
   38.8122  -50.4089   64.9680 H   0  0  0  0  0
   38.9653  -47.5350   65.5186 H   0  0  0  0  0
   38.3543  -49.9989   67.5095 O   0  0  0  0  0
   38.4660  -46.7406   67.5665 H   0  0  0  0  0
   39.3870  -46.9086   69.9862 H   0  0  0  0  0
   41.8905  -49.8881   68.0819 O   0  0  0  0  0
   41.0023  -49.8322   65.8475 H   0  0  0  0  0
   41.0850  -48.8322   63.5764 H   0  0  0  0  0
   41.0256  -46.6855   62.0811 H   0  0  0  0  0
   41.9364  -43.9934   63.6508 H   0  0  0  0  0
   44.3289  -44.2497   60.8179 H   0  0  0  0  0
   43.9551  -42.8790   61.8561 H   0  0  0  0  0
   46.4310  -43.9323   62.9111 H   0  0  0  0  0
   48.1391  -45.2828   64.0853 H   0  0  0  0  0
  1  2  1  0  0  0
  1  4  2  0  0  0
  1  5  1  0  0  0
  2  3  1  0  0  0
  5  6  1  0  0  0
  5  8  1  0  0  0
  5 67  1  0  0  0
  6  7  1  0  0  0
  8  9  2  0  0  0
  8 10  1  0  0  0
 10 11  1  0  0  0
 10 16  1  0  0  0
 10 66  1  0  0  0
 11 12  1  0  0  0
 12 13  1  0  0  0
 12 14  1  0  0  0
 12 15  1  0  0  0
 16 17  2  0  0  0
 16 18  1  0  0  0
 18 19  1  0  0  0
 18 64  1  0  0  0
 18 65  1  0  0  0
 19 20  2  0  0  0
 19 21  1  0  0  0
 21 22  1  0  0  0
 21 24  1  0  0  0
 21 63  1  0  0  0
 22 23  1  0  0  0
 24 25  2  0  0  0
 24 26  1  0  0  0
 26 27  1  0  0  0
 26 32  1  0  0  0
 26 62  1  0  0  0
 27 28  1  0  0  0
 28 29  1  0  0  0
 28 30  1  0  0  0
 28 31  1  0  0  0
 32 33  2  0  0  0
 32 34  1  0  0  0
 34 35  1  0  0  0
 34 37  1  0  0  0
 34 61  1  0  0  0
 35 36  1  0  0  0
 37 38  1  0  0  0
 37 51  1  0  0  0
 37 60  1  0  0  0
 38 39  1  0  0  0
 39 40  1  0  0  0
 39 59  2  0  0  0
 40 41  1  0  0  0
 40 46  2  0  0  0
 41 42  1  0  0  0
 42 43  1  0  0  0
 42 44  1  0  0  0
 42 45  1  0  0  0
 46 47  1  0  0  0
 46 58  1  0  0  0
 47 48  1  0  0  0
 47 50  1  0  0  0
 47 57  1  0  0  0
 48 49  1  0  0  0
 50 51  1  0  0  0
 50 56  2  0  0  0
 51 52  1  0  0  0
 51 55  1  0  0  0
 52 53  1  0  0  0
 52 54  1  0  0  0
M  END
> <# Confs.>
25

> <Pharmacophore Match>
(1YET) [A] GDM275

> <Matching Features>
||||HBA:495067246627921590|HBA:495067385280122077|HBA:495067408768422079|HBA:495067414144822081

> <Relative Pharmacophore-Fit Score>
0.51

> <Score>
0.5091928

> <Source Database>
conformers.ldb

> <Active/Decoy>
unknown

> <Mol. Index>
94

$$$$
74
XX    ILIB11302300363D

 59 59  0  0  1  0              1 V2000
   39.5759  -51.4636   67.5925 C   0  0  0  0  0
   39.5503  -52.8197   67.6419 O   0  0  0  0  0
   40.3339  -53.2558   67.2436 H   0  0  0  0  0
   38.6878  -50.7614   68.0570 O   0  0  0  0  0
   40.8330  -50.9405   66.9492 C   0  0  0  0  0
   41.8994  -51.8370   67.1830 O   0  0  0  0  0
   42.0239  -51.9181   68.1437 H   0  0  0  0  0
   41.2771  -49.5551   67.4182 C   0  0  0  0  0
   42.3592  -49.3821   67.9523 O   0  0  0  0  0
   40.3255  -48.4152   67.1533 C   0  0  0  0  0
   40.5573  -47.5059   68.2092 O   0  0  0  0  0
   39.7226  -47.7579   69.3408 C   0  0  0  0  0
   39.9577  -47.0173   70.1094 H   0  0  0  0  0
   39.9095  -48.7542   69.7514 H   0  0  0  0  0
   38.6680  -47.6537   69.0705 H   0  0  0  0  0
   40.5077  -47.7274   65.7977 C   0  0  0  0  0
   41.8558  -47.1904   65.7356 O   0  0  0  0  0
   42.7991  -47.8818   65.0438 C   0  0  0  0  0
   43.9770  -46.9940   64.8697 C   0  0  0  0  0
   44.4504  -46.2155   66.0555 C   0  0  0  0  0
   44.5197  -46.8695   66.9318 H   0  0  0  0  0
   43.7560  -45.4030   66.2909 H   0  0  0  0  0
   45.4435  -45.7831   65.9057 H   0  0  0  0  0
   44.4758  -46.9629   63.6217 C   0  0  0  0  0
   45.5514  -46.0572   63.1042 C   0  0  0  0  0
   45.0281  -45.3718   61.8496 C   0  0  0  0  0
   44.6782  -43.8822   61.9419 C   0  0  0  0  0
   44.6831  -43.3312   60.5856 N   0  0  0  0  0
   45.5839  -43.5061   60.1466 H   0  0  0  0  0
   43.9860  -43.8075   60.0145 H   0  0  0  0  0
   43.3354  -43.6065   62.6507 C   0  0  0  0  0
   43.5341  -43.7323   64.0586 O   0  0  0  0  0
   44.2254  -43.1009   64.3192 H   0  0  0  0  0
   42.1492  -44.4935   62.2309 C   0  0  0  0  0
   41.9789  -44.4863   60.8212 O   0  0  0  0  0
   41.8928  -43.5606   60.5357 H   0  0  0  0  0
   40.8316  -44.0021   62.8269 C   0  0  0  0  0
   40.4351  -44.5291   64.1895 C   0  0  0  0  0
   39.8336  -45.9205   64.1822 C   0  0  0  0  0
   39.5537  -46.5410   65.5532 C   0  0  0  0  0
   38.1485  -46.9357   65.5487 N   0  0  0  0  0
   37.8893  -47.3034   66.4625 H   0  0  0  0  0
   37.5628  -46.1131   65.4053 H   0  0  0  0  0
   39.7081  -45.7650   66.3119 H   0  0  0  0  0
   39.5886  -46.5191   63.1344 O   0  0  0  0  0
   41.3094  -44.5232   64.8442 H   0  0  0  0  0
   39.6975  -43.8429   64.6179 H   0  0  0  0  0
   40.0932  -43.2292   62.2154 O   0  0  0  0  0
   42.2845  -45.5322   62.5424 H   0  0  0  0  0
   43.0629  -42.5563   62.4797 H   0  0  0  0  0
   45.4941  -43.3955   62.4884 H   0  0  0  0  0
   44.8748  -46.0160   60.8083 O   0  0  0  0  0
   46.4360  -46.6397   62.8262 H   0  0  0  0  0
   45.8729  -45.3004   63.8231 H   0  0  0  0  0
   44.0321  -47.6125   62.8673 H   0  0  0  0  0
   42.6981  -49.0046   64.5746 O   0  0  0  0  0
   40.3804  -48.4677   64.9963 H   0  0  0  0  0
   39.2948  -48.8238   67.2216 H   0  0  0  0  0
   40.6621  -50.9099   65.8676 H   0  0  0  0  0
  1  2  1  0  0  0
  1  4  2  0  0  0
  1  5  1  0  0  0
  2  3  1  0  0  0
  5  6  1  0  0  0
  5  8  1  0  0  0
  5 59  1  0  0  0
  6  7  1  0  0  0
  8  9  2  0  0  0
  8 10  1  0  0  0
 10 11  1  0  0  0
 10 16  1  0  0  0
 10 58  1  0  0  0
 11 12  1  0  0  0
 12 13  1  0  0  0
 12 14  1  0  0  0
 12 15  1  0  0  0
 16 17  1  0  0  0
 16 40  1  0  0  0
 16 57  1  0  0  0
 17 18  1  0  0  0
 18 19  1  0  0  0
 18 56  2  0  0  0
 19 20  1  0  0  0
 19 24  2  0  0  0
 20 21  1  0  0  0
 20 22  1  0  0  0
 20 23  1  0  0  0
 24 25  1  0  0  0
 24 55  1  0  0  0
 25 26  1  0  0  0
 25 53  1  0  0  0
 25 54  1  0  0  0
 26 27  1  0  0  0
 26 52  2  0  0  0
 27 28  1  0  0  0
 27 31  1  0  0  0
 27 51  1  0  0  0
 28 29  1  0  0  0
 28 30  1  0  0  0
 31 32  1  0  0  0
 31 34  1  0  0  0
 31 50  1  0  0  0
 32 33  1  0  0  0
 34 35  1  0  0  0
 34 37  1  0  0  0
 34 49  1  0  0  0
 35 36  1  0  0  0
 37 38  1  0  0  0
 37 48  2  0  0  0
 38 39  1  0  0  0
 38 46  1  0  0  0
 38 47  1  0  0  0
 39 40  1  0  0  0
 39 45  2  0  0  0
 40 41  1  0  0  0
 40 44  1  0  0  0
 41 42  1  0  0  0
 41 43  1  0  0  0
M  END
> <# Confs.>
25

> <Pharmacophore Match>
(1YET) [A] GDM275

> <Matching Features>
||||HBA:495067246627921590|HBA:495067385280122077|HBA:495067408768422079|HBA:495067414144822081

> <Relative Pharmacophore-Fit Score>
0.51

> <Score>
0.51135993

> <Source Database>
conformers.ldb

> <Active/Decoy>
unknown

> <Mol. Index>
77

$$$$
112
XX    ILIB11302300363D

 51 51  0  0  1  0              1 V2000
   42.9408  -46.1667   65.1412 O   0  0  0  0  0
   42.0780  -45.4359   64.2701 C   0  0  0  0  0
   42.8213  -44.2734   63.6593 C   0  0  0  0  0
   43.7400  -43.7389   64.3094 O   0  0  0  0  0
   42.4655  -43.8180   62.2725 C   0  0  0  0  0
   42.0015  -44.9414   61.5448 O   0  0  0  0  0
   42.7714  -45.5014   61.3483 H   0  0  0  0  0
   41.3778  -42.7819   62.2186 C   0  0  0  0  0
   40.6643  -42.8909   61.0697 O   0  0  0  0  0
   39.9610  -42.2104   61.0105 H   0  0  0  0  0
   41.1695  -41.9276   63.0682 O   0  0  0  0  0
   43.3528  -43.4306   61.7611 H   0  0  0  0  0
   40.8357  -44.9378   65.0359 C   0  0  0  0  0
   39.7793  -44.7190   64.0982 O   0  0  0  0  0
   39.5181  -45.5838   63.7391 H   0  0  0  0  0
   40.3507  -45.8261   66.2181 C   0  0  0  0  0
   40.0449  -47.3023   65.8387 C   0  0  0  0  0
   38.9285  -47.3513   64.9522 O   0  0  0  0  0
   38.7755  -48.2825   64.7235 H   0  0  0  0  0
   39.7385  -48.1538   67.0794 C   0  0  0  0  0
   39.9373  -49.6459   66.8478 C   0  0  0  0  0
   41.3619  -50.1841   66.7811 C   0  0  0  0  0
   41.3443  -51.5989   66.7651 O   0  0  0  0  0
   40.9351  -51.9039   67.5938 H   0  0  0  0  0
   42.2630  -49.7850   67.9396 C   0  0  0  0  0
   43.7002  -49.3971   67.6301 C   0  0  0  0  0
   43.6660  -48.1953   66.7386 C   0  0  0  0  0
   44.1674  -48.1518   65.4911 C   0  0  0  0  0
   43.8028  -47.0493   64.5527 C   0  0  0  0  0
   44.1540  -47.0389   63.3803 O   0  0  0  0  0
   44.8520  -49.2284   64.9651 O   0  0  0  0  0
   46.1949  -48.9487   64.5881 C   0  0  0  0  0
   46.6744  -49.8949   64.3198 H   0  0  0  0  0
   46.2263  -48.2952   63.7110 H   0  0  0  0  0
   46.7565  -48.5094   65.4208 H   0  0  0  0  0
   43.1126  -47.3517   67.1430 H   0  0  0  0  0
   44.2120  -49.1466   68.5644 H   0  0  0  0  0
   44.2049  -50.2617   67.1890 H   0  0  0  0  0
   41.8574  -49.8194   69.1038 O   0  0  0  0  0
   41.7852  -49.8570   65.8288 H   0  0  0  0  0
   38.9643  -50.3829   66.6813 O   0  0  0  0  0
   40.3695  -47.8614   67.9245 H   0  0  0  0  0
   38.6972  -48.0155   67.3926 H   0  0  0  0  0
   40.8944  -47.7258   65.2974 H   0  0  0  0  0
   39.1408  -45.1534   66.8915 C   0  0  0  0  0
   38.8693  -45.6638   67.8210 H   0  0  0  0  0
   38.2606  -45.1468   66.2411 H   0  0  0  0  0
   39.3721  -44.1154   67.1533 H   0  0  0  0  0
   41.1605  -45.8361   66.9593 H   0  0  0  0  0
   41.0636  -43.9503   65.4558 H   0  0  0  0  0
   41.7524  -46.0951   63.4375 H   0  0  0  0  0
  1  2  1  0  0  0
  1 29  1  0  0  0
  2  3  1  0  0  0
  2 13  1  0  0  0
  2 51  1  0  0  0
  3  4  2  0  0  0
  3  5  1  0  0  0
  5  6  1  0  0  0
  5  8  1  0  0  0
  5 12  1  0  0  0
  6  7  1  0  0  0
  8  9  1  0  0  0
  8 11  2  0  0  0
  9 10  1  0  0  0
 13 14  1  0  0  0
 13 16  1  0  0  0
 13 50  1  0  0  0
 14 15  1  0  0  0
 16 17  1  0  0  0
 16 45  1  0  0  0
 16 49  1  0  0  0
 17 18  1  0  0  0
 17 20  1  0  0  0
 17 44  1  0  0  0
 18 19  1  0  0  0
 20 21  1  0  0  0
 20 42  1  0  0  0
 20 43  1  0  0  0
 21 22  1  0  0  0
 21 41  2  0  0  0
 22 23  1  0  0  0
 22 25  1  0  0  0
 22 40  1  0  0  0
 23 24  1  0  0  0
 25 26  1  0  0  0
 25 39  2  0  0  0
 26 27  1  0  0  0
 26 37  1  0  0  0
 26 38  1  0  0  0
 27 28  2  0  0  0
 27 36  1  0  0  0
 28 29  1  0  0  0
 28 31  1  0  0  0
 29 30  2  0  0  0
 31 32  1  0  0  0
 32 33  1  0  0  0
 32 34  1  0  0  0
 32 35  1  0  0  0
 45 46  1  0  0  0
 45 47  1  0  0  0
 45 48  1  0  0  0
M  END
> <# Confs.>
25

> <Pharmacophore Match>
(1YET) [A] GDM275

> <Matching Features>
||||HBA:495067246627921590|HBA:495067385280122077|HBA:495067408768422079|HBA:495067414144822081

> <Relative Pharmacophore-Fit Score>
0.49

> <Score>
0.4941898

> <Source Database>
conformers.ldb

> <Active/Decoy>
unknown

> <Mol. Index>
108

$$$$
100
XX    ILIB11302300363D

 67 67  0  0  1  0              1 V2000
   42.4548  -47.1427   68.5822 O   0  0  0  0  0
   43.4302  -47.4040   69.5744 C   0  0  0  0  0
   43.3196  -46.6549   70.3648 H   0  0  0  0  0
   44.4468  -47.2967   69.1583 H   0  0  0  0  0
   43.2937  -48.3896   70.0098 H   0  0  0  0  0
   42.4690  -47.9799   67.5050 C   0  0  0  0  0
   41.7720  -49.1261   67.4803 C   0  0  0  0  0
   40.8943  -49.6013   68.6021 C   0  0  0  0  0
   41.2868  -50.9100   68.9843 O   0  0  0  0  0
   41.2672  -51.4789   68.1960 H   0  0  0  0  0
   39.4361  -49.6175   68.1461 C   0  0  0  0  0
   38.7854  -48.2659   67.8504 C   0  0  0  0  0
   37.5176  -48.2106   68.5741 N   0  0  0  0  0
   36.8922  -48.9394   68.2354 H   0  0  0  0  0
   37.6737  -48.3933   69.5641 H   0  0  0  0  0
   38.6107  -48.0669   66.3292 C   0  0  0  0  0
   37.6029  -48.9463   65.8269 O   0  0  0  0  0
   37.8855  -49.8578   66.0138 H   0  0  0  0  0
   38.2273  -46.6302   65.9517 C   0  0  0  0  0
   39.1967  -45.7271   66.4447 O   0  0  0  0  0
   38.8337  -44.8287   66.3537 H   0  0  0  0  0
   38.0434  -46.4453   64.4427 C   0  0  0  0  0
   39.2507  -46.3965   63.5101 C   0  0  0  0  0
   39.9986  -47.5956   63.5677 O   0  0  0  0  0
   40.6526  -47.8903   62.3394 C   0  0  0  0  0
   41.3989  -47.1225   62.1139 H   0  0  0  0  0
   39.9304  -47.9661   61.5217 H   0  0  0  0  0
   41.1629  -48.8517   62.4449 H   0  0  0  0  0
   40.2004  -45.2383   63.7866 C   0  0  0  0  0
   39.6624  -43.8323   63.5737 C   0  0  0  0  0
   39.1914  -43.7150   62.2487 O   0  0  0  0  0
   38.5911  -42.9507   62.2150 H   0  0  0  0  0
   40.6815  -42.7352   63.8224 C   0  0  0  0  0
   41.7653  -42.5373   62.7852 C   0  0  0  0  0
   43.0492  -41.9496   63.3244 C   0  0  0  0  0
   44.1137  -42.9268   63.8116 C   0  0  0  0  0
   45.3905  -42.3308   63.6798 O   0  0  0  0  0
   45.9866  -42.5925   62.4162 C   0  0  0  0  0
   45.3962  -42.1358   61.6173 H   0  0  0  0  0
   46.0816  -43.6694   62.2458 H   0  0  0  0  0
   46.9853  -42.1496   62.4106 H   0  0  0  0  0
   44.0037  -43.2697   65.2879 C   0  0  0  0  0
   44.9018  -44.3821   65.8101 C   0  0  0  0  0
   44.9846  -44.2706   67.2129 O   0  0  0  0  0
   45.5516  -43.5051   67.4178 H   0  0  0  0  0
   44.4242  -45.7668   65.4212 C   0  0  0  0  0
   43.7013  -46.3255   66.4356 O   0  0  0  0  0
   43.2306  -47.5931   66.2679 C   0  0  0  0  0
   43.3701  -48.3142   65.2913 O   0  0  0  0  0
   44.6506  -46.2605   64.3231 O   0  0  0  0  0
   45.9173  -44.2550   65.4181 H   0  0  0  0  0
   43.2298  -42.6710   66.0369 O   0  0  0  0  0
   44.0565  -43.8519   63.2278 H   0  0  0  0  0
   43.2051  -40.7305   63.3965 O   0  0  0  0  0
   41.3782  -41.8696   62.0093 H   0  0  0  0  0
   41.9986  -43.4909   62.3008 H   0  0  0  0  0
   40.6160  -42.0364   64.8342 O   0  0  0  0  0
   38.8214  -43.6819   64.2589 H   0  0  0  0  0
   41.3508  -45.4331   64.1838 O   0  0  0  0  0
   38.8920  -46.2590   62.4820 H   0  0  0  0  0
   36.9046  -46.3593   63.9712 O   0  0  0  0  0
   37.2677  -46.3748   66.4167 H   0  0  0  0  0
   39.5496  -48.3378   65.8388 H   0  0  0  0  0
   39.4355  -47.4857   68.2598 H   0  0  0  0  0
   38.8127  -50.6741   68.0238 O   0  0  0  0  0
   40.9603  -48.9725   69.4948 H   0  0  0  0  0
   41.7828  -49.7550   66.5921 H   0  0  0  0  0
  1  2  1  0  0  0
  1  6  1  0  0  0
  2  3  1  0  0  0
  2  4  1  0  0  0
  2  5  1  0  0  0
  6  7  2  0  0  0
  6 48  1  0  0  0
  7  8  1  0  0  0
  7 67  1  0  0  0
  8  9  1  0  0  0
  8 11  1  0  0  0
  8 66  1  0  0  0
  9 10  1  0  0  0
 11 12  1  0  0  0
 11 65  2  0  0  0
 12 13  1  0  0  0
 12 16  1  0  0  0
 12 64  1  0  0  0
 13 14  1  0  0  0
 13 15  1  0  0  0
 16 17  1  0  0  0
 16 19  1  0  0  0
 16 63  1  0  0  0
 17 18  1  0  0  0
 19 20  1  0  0  0
 19 22  1  0  0  0
 19 62  1  0  0  0
 20 21  1  0  0  0
 22 23  1  0  0  0
 22 61  2  0  0  0
 23 24  1  0  0  0
 23 29  1  0  0  0
 23 60  1  0  0  0
 24 25  1  0  0  0
 25 26  1  0  0  0
 25 27  1  0  0  0
 25 28  1  0  0  0
 29 30  1  0  0  0
 29 59  2  0  0  0
 30 31  1  0  0  0
 30 33  1  0  0  0
 30 58  1  0  0  0
 31 32  1  0  0  0
 33 34  1  0  0  0
 33 57  2  0  0  0
 34 35  1  0  0  0
 34 55  1  0  0  0
 34 56  1  0  0  0
 35 36  1  0  0  0
 35 54  2  0  0  0
 36 37  1  0  0  0
 36 42  1  0  0  0
 36 53  1  0  0  0
 37 38  1  0  0  0
 38 39  1  0  0  0
 38 40  1  0  0  0
 38 41  1  0  0  0
 42 43  1  0  0  0
 42 52  2  0  0  0
 43 44  1  0  0  0
 43 46  1  0  0  0
 43 51  1  0  0  0
 44 45  1  0  0  0
 46 47  1  0  0  0
 46 50  2  0  0  0
 47 48  1  0  0  0
 48 49  2  0  0  0
M  END
> <# Confs.>
25

> <Pharmacophore Match>
(1YET) [A] GDM275

> <Matching Features>
||||HBA:495067246627921590|HBA:495067385280122077|HBA:495067408768422079|HBA:495067414144822081

> <Relative Pharmacophore-Fit Score>
0.50

> <Score>
0.50228286

> <Source Database>
conformers.ldb

> <Active/Decoy>
unknown

> <Mol. Index>
106

$$$$
119
XX    ILIB11302300363D

 71 71  0  0  1  0              1 V2000
   45.7448  -43.4388   62.7856 C   0  0  0  0  0
   46.8872  -42.6288   62.9811 O   0  0  0  0  0
   47.4735  -43.0800   63.6130 H   0  0  0  0  0
   45.0248  -43.6431   64.1148 C   0  0  0  0  0
   45.5106  -43.2426   65.1761 O   0  0  0  0  0
   43.6452  -44.3021   64.1085 C   0  0  0  0  0
   43.3121  -44.8077   62.8192 O   0  0  0  0  0
   43.7289  -46.0709   62.5178 C   0  0  0  0  0
   44.0926  -46.9176   63.3236 O   0  0  0  0  0
   43.7219  -46.2597   61.0105 C   0  0  0  0  0
   44.2699  -47.5446   60.7859 O   0  0  0  0  0
   43.7574  -48.1690   59.6158 C   0  0  0  0  0
   42.6803  -48.3394   59.7069 H   0  0  0  0  0
   43.9688  -47.5602   58.7324 H   0  0  0  0  0
   44.2526  -49.1364   59.4973 H   0  0  0  0  0
   44.5163  -45.1727   60.2496 C   0  0  0  0  0
   43.8153  -43.9323   60.2676 O   0  0  0  0  0
   42.9158  -44.0968   59.9351 H   0  0  0  0  0
   45.9836  -44.9471   60.6604 C   0  0  0  0  0
   46.7384  -46.0848   60.2588 O   0  0  0  0  0
   47.6795  -45.8707   60.3791 H   0  0  0  0  0
   46.2488  -44.7215   62.1508 C   0  0  0  0  0
   46.8975  -45.5315   62.8178 O   0  0  0  0  0
   46.3880  -44.0775   60.1276 H   0  0  0  0  0
   44.5447  -45.4767   59.1946 H   0  0  0  0  0
   42.6647  -46.2563   60.7118 H   0  0  0  0  0
   42.5399  -43.3234   64.4544 C   0  0  0  0  0
   41.1214  -43.8361   64.4855 C   0  0  0  0  0
   40.3841  -43.7401   63.1641 C   0  0  0  0  0
   38.9549  -44.2333   63.1159 C   0  0  0  0  0
   38.4661  -44.0503   61.7912 O   0  0  0  0  0
   38.3240  -43.0977   61.6619 H   0  0  0  0  0
   38.7693  -45.7023   63.4373 C   0  0  0  0  0
   37.5249  -46.1774   64.0772 C   0  0  0  0  0
   37.2313  -47.4303   64.4287 C   0  0  0  0  0
   38.0778  -48.6612   64.3154 C   0  0  0  0  0
   37.2307  -49.8425   64.1130 N   0  0  0  0  0
   36.7276  -50.0520   64.9760 H   0  0  0  0  0
   37.8224  -50.6534   63.9396 H   0  0  0  0  0
   38.9830  -48.8671   65.5428 C   0  0  0  0  0
   39.8570  -47.7453   65.6896 O   0  0  0  0  0
   40.4466  -47.7191   64.9175 H   0  0  0  0  0
   39.7928  -50.1682   65.6514 C   0  0  0  0  0
   40.6609  -50.2622   64.5324 O   0  0  0  0  0
   40.9295  -51.6061   64.1514 C   0  0  0  0  0
   41.4498  -52.1406   64.9518 H   0  0  0  0  0
   40.0005  -52.1231   63.8937 H   0  0  0  0  0
   41.5799  -51.5865   63.2819 H   0  0  0  0  0
   40.5795  -50.2350   66.9574 C   0  0  0  0  0
   39.9083  -50.8628   68.1631 C   0  0  0  0  0
   38.7376  -50.1237   68.4587 O   0  0  0  0  0
   39.0162  -49.2733   68.8407 H   0  0  0  0  0
   39.4854  -52.2907   67.9656 C   0  0  0  0  0
   40.5547  -53.0762   67.6768 O   0  0  0  0  0
   40.2942  -54.0084   67.5266 H   0  0  0  0  0
   38.3378  -52.7061   68.0198 O   0  0  0  0  0
   40.5700  -50.8051   69.0329 H   0  0  0  0  0
   41.7127  -49.7545   67.0251 O   0  0  0  0  0
   39.0954  -51.0183   65.6467 H   0  0  0  0  0
   38.3267  -48.8439   66.4240 H   0  0  0  0  0
   38.7216  -48.5733   63.4303 H   0  0  0  0  0
   36.2324  -47.5864   64.8402 H   0  0  0  0  0
   36.7726  -45.4005   64.2454 H   0  0  0  0  0
   39.6915  -46.5011   63.1966 O   0  0  0  0  0
   38.3247  -43.6425   63.7828 H   0  0  0  0  0
   40.9570  -43.3043   62.1633 O   0  0  0  0  0
   40.5526  -43.2754   65.2343 H   0  0  0  0  0
   41.1466  -44.8868   64.7919 H   0  0  0  0  0
   42.8031  -42.1384   64.6657 O   0  0  0  0  0
   43.6427  -45.1031   64.8562 H   0  0  0  0  0
   45.0809  -42.8935   62.1136 H   0  0  0  0  0
  1  2  1  0  0  0
  1  4  1  0  0  0
  1 22  1  0  0  0
  1 71  1  0  0  0
  2  3  1  0  0  0
  4  5  2  0  0  0
  4  6  1  0  0  0
  6  7  1  0  0  0
  6 27  1  0  0  0
  6 70  1  0  0  0
  7  8  1  0  0  0
  8  9  2  0  0  0
  8 10  1  0  0  0
 10 11  1  0  0  0
 10 16  1  0  0  0
 10 26  1  0  0  0
 11 12  1  0  0  0
 12 13  1  0  0  0
 12 14  1  0  0  0
 12 15  1  0  0  0
 16 17  1  0  0  0
 16 19  1  0  0  0
 16 25  1  0  0  0
 17 18  1  0  0  0
 19 20  1  0  0  0
 19 22  1  0  0  0
 19 24  1  0  0  0
 20 21  1  0  0  0
 22 23  2  0  0  0
 27 28  1  0  0  0
 27 69  2  0  0  0
 28 29  1  0  0  0
 28 67  1  0  0  0
 28 68  1  0  0  0
 29 30  1  0  0  0
 29 66  2  0  0  0
 30 31  1  0  0  0
 30 33  1  0  0  0
 30 65  1  0  0  0
 31 32  1  0  0  0
 33 34  1  0  0  0
 33 64  2  0  0  0
 34 35  2  0  0  0
 34 63  1  0  0  0
 35 36  1  0  0  0
 35 62  1  0  0  0
 36 37  1  0  0  0
 36 40  1  0  0  0
 36 61  1  0  0  0
 37 38  1  0  0  0
 37 39  1  0  0  0
 40 41  1  0  0  0
 40 43  1  0  0  0
 40 60  1  0  0  0
 41 42  1  0  0  0
 43 44  1  0  0  0
 43 49  1  0  0  0
 43 59  1  0  0  0
 44 45  1  0  0  0
 45 46  1  0  0  0
 45 47  1  0  0  0
 45 48  1  0  0  0
 49 50  1  0  0  0
 49 58  2  0  0  0
 50 51  1  0  0  0
 50 53  1  0  0  0
 50 57  1  0  0  0
 51 52  1  0  0  0
 53 54  1  0  0  0
 53 56  2  0  0  0
 54 55  1  0  0  0
M  END
> <# Confs.>
25

> <Pharmacophore Match>
(1YET) [A] GDM275

> <Matching Features>
||||HBA:495067246627921590|HBA:495067385280122077|HBA:495067408768422079|HBA:495067414144822081

> <Relative Pharmacophore-Fit Score>
0.51

> <Score>
0.51032466

> <Source Database>
conformers.ldb

> <Active/Decoy>
unknown

> <Mol. Index>
123

$$$$
114
XX    ILIB11302300363D

 51 51  0  0  1  0              1 V2000
   41.6499  -44.8323   64.3246 C   0  0  0  0  0
   43.0534  -45.0801   64.9654 C   0  0  0  0  0
   43.8264  -43.8783   64.9146 O   0  0  0  0  0
   44.7104  -44.0805   65.2616 H   0  0  0  0  0
   43.0278  -45.6061   66.4174 C   0  0  0  0  0
   42.1551  -44.8508   67.2354 O   0  0  0  0  0
   41.2426  -45.0179   66.9457 H   0  0  0  0  0
   42.6537  -47.0882   66.5044 C   0  0  0  0  0
   42.4672  -47.6851   67.8920 C   0  0  0  0  0
   43.7045  -48.2337   68.2870 O   0  0  0  0  0
   43.9244  -48.9546   67.6719 H   0  0  0  0  0
   41.3758  -48.7362   67.9759 C   0  0  0  0  0
   40.2687  -48.2584   67.3344 O   0  0  0  0  0
   39.1577  -49.0350   67.2829 C   0  0  0  0  0
   38.1135  -48.3928   66.4295 C   0  0  0  0  0
   37.0465  -49.1314   66.0080 O   0  0  0  0  0
   37.3883  -50.2771   65.2410 C   0  0  0  0  0
   36.4624  -50.7966   64.9779 H   0  0  0  0  0
   38.0134  -50.9712   65.8127 H   0  0  0  0  0
   37.8856  -49.9816   64.3111 H   0  0  0  0  0
   38.1778  -47.0684   66.1452 C   0  0  0  0  0
   37.1841  -46.3099   65.3194 C   0  0  0  0  0
   37.8318  -45.9122   64.0025 C   0  0  0  0  0
   37.5599  -44.5103   63.4960 C   0  0  0  0  0
   37.0201  -44.6779   62.1987 O   0  0  0  0  0
   36.5832  -43.8448   61.9551 H   0  0  0  0  0
   38.7983  -43.6318   63.4256 C   0  0  0  0  0
   39.5366  -43.3669   64.7283 C   0  0  0  0  0
   41.0676  -43.4268   64.6570 C   0  0  0  0  0
   41.5382  -42.4229   63.7624 O   0  0  0  0  0
   42.5094  -42.4241   63.8061 H   0  0  0  0  0
   41.4128  -43.1188   65.6493 H   0  0  0  0  0
   39.1880  -44.0660   65.4940 H   0  0  0  0  0
   39.2225  -42.3644   65.0461 H   0  0  0  0  0
   39.1400  -43.0866   62.3755 O   0  0  0  0  0
   36.8087  -44.0167   64.1176 H   0  0  0  0  0
   38.5248  -46.6998   63.3558 O   0  0  0  0  0
   36.2776  -46.8802   65.0958 H   0  0  0  0  0
   36.8876  -45.4152   65.8760 H   0  0  0  0  0
   39.0010  -46.4623   66.5168 H   0  0  0  0  0
   38.9827  -50.1194   67.8225 O   0  0  0  0  0
   41.4940  -49.8093   68.5498 O   0  0  0  0  0
   42.2027  -46.9038   68.6091 H   0  0  0  0  0
   42.5651  -47.7973   65.5015 O   0  0  0  0  0
   44.0305  -45.5128   66.8499 H   0  0  0  0  0
   43.6031  -45.8092   64.3570 H   0  0  0  0  0
   41.7724  -45.0710   62.8096 C   0  0  0  0  0
   40.8067  -44.9964   62.3072 H   0  0  0  0  0
   42.4634  -44.3647   62.3383 H   0  0  0  0  0
   42.1476  -46.0810   62.6112 H   0  0  0  0  0
   40.9714  -45.5999   64.7140 H   0  0  0  0  0
  1  2  1  0  0  0
  1 29  1  0  0  0
  1 47  1  0  0  0
  1 51  1  0  0  0
  2  3  1  0  0  0
  2  5  1  0  0  0
  2 46  1  0  0  0
  3  4  1  0  0  0
  5  6  1  0  0  0
  5  8  1  0  0  0
  5 45  1  0  0  0
  6  7  1  0  0  0
  8  9  1  0  0  0
  8 44  2  0  0  0
  9 10  1  0  0  0
  9 12  1  0  0  0
  9 43  1  0  0  0
 10 11  1  0  0  0
 12 13  1  0  0  0
 12 42  2  0  0  0
 13 14  1  0  0  0
 14 15  1  0  0  0
 14 41  2  0  0  0
 15 16  1  0  0  0
 15 21  2  0  0  0
 16 17  1  0  0  0
 17 18  1  0  0  0
 17 19  1  0  0  0
 17 20  1  0  0  0
 21 22  1  0  0  0
 21 40  1  0  0  0
 22 23  1  0  0  0
 22 38  1  0  0  0
 22 39  1  0  0  0
 23 24  1  0  0  0
 23 37  2  0  0  0
 24 25  1  0  0  0
 24 27  1  0  0  0
 24 36  1  0  0  0
 25 26  1  0  0  0
 27 28  1  0  0  0
 27 35  2  0  0  0
 28 29  1  0  0  0
 28 33  1  0  0  0
 28 34  1  0  0  0
 29 30  1  0  0  0
 29 32  1  0  0  0
 30 31  1  0  0  0
 47 48  1  0  0  0
 47 49  1  0  0  0
 47 50  1  0  0  0
M  END
> <# Confs.>
11

> <Pharmacophore Match>
(1YET) [A] GDM275

> <Matching Features>
||H:495067334351321757||HBA:495067246627921590|HBA:495067385280122077|HBA:495067408768422079|HBA:495067414144822081

> <Relative Pharmacophore-Fit Score>
0.62

> <Score>
0.6218672

> <Source Database>
conformers.ldb

> <Active/Decoy>
unknown

> <Mol. Index>
116

$$$$
141
XX    ILIB11302300363D

 51 51  0  0  1  0              1 V2000
   39.2704  -52.9462   66.9282 C   0  0  0  0  0
   40.2528  -53.4022   66.1106 O   0  0  0  0  0
   40.2982  -54.3825   66.1035 H   0  0  0  0  0
   38.5225  -53.6779   67.5607 O   0  0  0  0  0
   39.2048  -51.4447   66.9065 C   0  0  0  0  0
   38.1681  -51.0227   67.7731 O   0  0  0  0  0
   38.3962  -51.3079   68.6741 H   0  0  0  0  0
   40.4942  -50.7650   67.3212 C   0  0  0  0  0
   41.2557  -51.3080   68.1244 O   0  0  0  0  0
   40.8574  -49.4269   66.7233 C   0  0  0  0  0
   41.6033  -48.7666   67.7285 O   0  0  0  0  0
   40.7892  -48.0042   68.6096 C   0  0  0  0  0
   41.4344  -47.5448   69.3628 H   0  0  0  0  0
   40.2761  -47.2090   68.0608 H   0  0  0  0  0
   40.0605  -48.6410   69.1187 H   0  0  0  0  0
   41.6338  -49.5125   65.4163 C   0  0  0  0  0
   40.8483  -50.2117   64.4544 O   0  0  0  0  0
   41.3903  -50.3304   63.6555 H   0  0  0  0  0
   42.0156  -48.1448   64.8019 C   0  0  0  0  0
   42.7721  -48.3265   63.5616 N   0  0  0  0  0
   43.6031  -48.8855   63.7495 H   0  0  0  0  0
   43.1073  -47.4219   63.2316 H   0  0  0  0  0
   40.7735  -47.3471   64.4474 C   0  0  0  0  0
   39.9555  -47.7926   63.6396 O   0  0  0  0  0
   40.5424  -46.0109   65.1192 C   0  0  0  0  0
   41.1602  -44.8553   64.3476 C   0  0  0  0  0
   42.5791  -45.0670   64.2456 O   0  0  0  0  0
   43.3574  -43.9905   64.5536 C   0  0  0  0  0
   44.4126  -43.8313   63.4862 C   0  0  0  0  0
   45.4308  -42.9909   63.9904 O   0  0  0  0  0
   45.0380  -42.1221   64.1772 H   0  0  0  0  0
   43.8605  -43.2314   62.1957 C   0  0  0  0  0
   42.6796  -43.9221   61.5443 C   0  0  0  0  0
   41.3370  -43.5819   62.1639 C   0  0  0  0  0
   40.6099  -44.6967   62.9193 C   0  0  0  0  0
   39.2248  -44.3908   62.9590 O   0  0  0  0  0
   39.1056  -43.6046   63.5180 H   0  0  0  0  0
   40.7282  -45.6135   62.3331 H   0  0  0  0  0
   40.8700  -42.4462   62.0740 O   0  0  0  0  0
   42.6421  -43.6358   60.4881 H   0  0  0  0  0
   42.8497  -45.0036   61.5540 H   0  0  0  0  0
   44.3510  -42.2229   61.6862 O   0  0  0  0  0
   44.8686  -44.8004   63.2674 H   0  0  0  0  0
   43.1759  -43.2153   65.4816 O   0  0  0  0  0
   40.9429  -43.9387   64.9134 H   0  0  0  0  0
   40.9403  -46.0583   66.1395 H   0  0  0  0  0
   39.4576  -45.8783   65.2027 H   0  0  0  0  0
   42.6402  -47.5691   65.4944 H   0  0  0  0  0
   42.5593  -50.0793   65.5755 H   0  0  0  0  0
   39.8979  -48.8925   66.5478 H   0  0  0  0  0
   38.9352  -51.1128   65.8995 H   0  0  0  0  0
  1  2  1  0  0  0
  1  4  2  0  0  0
  1  5  1  0  0  0
  2  3  1  0  0  0
  5  6  1  0  0  0
  5  8  1  0  0  0
  5 51  1  0  0  0
  6  7  1  0  0  0
  8  9  2  0  0  0
  8 10  1  0  0  0
 10 11  1  0  0  0
 10 16  1  0  0  0
 10 50  1  0  0  0
 11 12  1  0  0  0
 12 13  1  0  0  0
 12 14  1  0  0  0
 12 15  1  0  0  0
 16 17  1  0  0  0
 16 19  1  0  0  0
 16 49  1  0  0  0
 17 18  1  0  0  0
 19 20  1  0  0  0
 19 23  1  0  0  0
 19 48  1  0  0  0
 20 21  1  0  0  0
 20 22  1  0  0  0
 23 24  2  0  0  0
 23 25  1  0  0  0
 25 26  1  0  0  0
 25 46  1  0  0  0
 25 47  1  0  0  0
 26 27  1  0  0  0
 26 35  1  0  0  0
 26 45  1  0  0  0
 27 28  1  0  0  0
 28 29  1  0  0  0
 28 44  2  0  0  0
 29 30  1  0  0  0
 29 32  1  0  0  0
 29 43  1  0  0  0
 30 31  1  0  0  0
 32 33  1  0  0  0
 32 42  2  0  0  0
 33 34  1  0  0  0
 33 40  1  0  0  0
 33 41  1  0  0  0
 34 35  1  0  0  0
 34 39  2  0  0  0
 35 36  1  0  0  0
 35 38  1  0  0  0
 36 37  1  0  0  0
M  END
> <# Confs.>
25

> <Pharmacophore Match>
(1YET) [A] GDM275

> <Matching Features>
||||HBA:495067246627921590|HBA:495067385280122077|HBA:495067408768422079|HBA:495067414144822081

> <Relative Pharmacophore-Fit Score>
0.51

> <Score>
0.508893

> <Source Database>
conformers.ldb

> <Active/Decoy>
unknown

> <Mol. Index>
137

$$$$
111
XX    ILIB11302300363D

 51 51  0  0  1  0              1 V2000
   41.1971  -44.6331   64.2673 C   0  0  0  0  0
   40.7452  -46.1072   64.4982 C   0  0  0  0  0
   41.9546  -46.9173   64.4058 O   0  0  0  0  0
   42.0800  -47.8141   63.3886 C   0  0  0  0  0
   43.3978  -48.4711   63.5382 C   0  0  0  0  0
   43.4991  -49.2972   64.6388 O   0  0  0  0  0
   44.7626  -49.9351   64.7924 C   0  0  0  0  0
   44.7604  -50.4521   65.7572 H   0  0  0  0  0
   45.5771  -49.2035   64.8029 H   0  0  0  0  0
   44.9193  -50.6838   64.0098 H   0  0  0  0  0
   44.3628  -48.1986   62.6357 C   0  0  0  0  0
   44.2861  -47.2686   61.4600 C   0  0  0  0  0
   45.2419  -46.1018   61.6604 C   0  0  0  0  0
   44.6775  -44.7020   61.4750 C   0  0  0  0  0
   45.7130  -43.8199   61.0884 O   0  0  0  0  0
   46.3845  -43.8148   61.7925 H   0  0  0  0  0
   44.0702  -44.1132   62.7333 C   0  0  0  0  0
   42.7288  -43.4164   62.6008 C   0  0  0  0  0
   41.5952  -44.4284   62.7734 C   0  0  0  0  0
   40.4813  -43.9911   61.9956 O   0  0  0  0  0
   39.7893  -44.6705   62.0687 H   0  0  0  0  0
   41.9127  -45.3718   62.3281 H   0  0  0  0  0
   42.6744  -42.6068   63.3364 H   0  0  0  0  0
   42.6855  -42.9319   61.6191 H   0  0  0  0  0
   44.6345  -44.2038   63.8237 O   0  0  0  0  0
   43.9426  -44.7238   60.6658 H   0  0  0  0  0
   46.4280  -46.2828   61.9417 O   0  0  0  0  0
   44.5856  -47.7946   60.5468 H   0  0  0  0  0
   43.2788  -46.8881   61.2848 H   0  0  0  0  0
   45.3300  -48.6867   62.7383 H   0  0  0  0  0
   41.2777  -48.0531   62.4915 O   0  0  0  0  0
   40.1373  -46.4614   65.8492 C   0  0  0  0  0
   38.9519  -45.7052   66.1082 O   0  0  0  0  0
   38.3101  -45.8785   65.3998 H   0  0  0  0  0
   39.8535  -47.9323   65.9760 C   0  0  0  0  0
   39.8910  -48.5579   67.3548 C   0  0  0  0  0
   38.9984  -49.6475   67.4398 O   0  0  0  0  0
   39.2375  -50.2941   66.7541 H   0  0  0  0  0
   41.2581  -49.0229   67.7695 C   0  0  0  0  0
   42.1331  -47.9860   67.7924 O   0  0  0  0  0
   43.0309  -48.2694   68.0684 H   0  0  0  0  0
   41.5570  -50.1682   68.0765 O   0  0  0  0  0
   39.5650  -47.7999   68.0754 H   0  0  0  0  0
   39.5427  -48.6007   64.9894 O   0  0  0  0  0
   40.8313  -46.1902   66.6532 H   0  0  0  0  0
   40.0329  -46.3835   63.7192 H   0  0  0  0  0
   40.1616  -43.5925   64.7071 C   0  0  0  0  0
   39.1797  -43.7872   64.2644 H   0  0  0  0  0
   40.0475  -43.5798   65.7948 H   0  0  0  0  0
   40.4704  -42.5835   64.4134 H   0  0  0  0  0
   42.1021  -44.4814   64.8709 H   0  0  0  0  0
  1  2  1  0  0  0
  1 19  1  0  0  0
  1 47  1  0  0  0
  1 51  1  0  0  0
  2  3  1  0  0  0
  2 32  1  0  0  0
  2 46  1  0  0  0
  3  4  1  0  0  0
  4  5  1  0  0  0
  4 31  2  0  0  0
  5  6  1  0  0  0
  5 11  2  0  0  0
  6  7  1  0  0  0
  7  8  1  0  0  0
  7  9  1  0  0  0
  7 10  1  0  0  0
 11 12  1  0  0  0
 11 30  1  0  0  0
 12 13  1  0  0  0
 12 28  1  0  0  0
 12 29  1  0  0  0
 13 14  1  0  0  0
 13 27  2  0  0  0
 14 15  1  0  0  0
 14 17  1  0  0  0
 14 26  1  0  0  0
 15 16  1  0  0  0
 17 18  1  0  0  0
 17 25  2  0  0  0
 18 19  1  0  0  0
 18 23  1  0  0  0
 18 24  1  0  0  0
 19 20  1  0  0  0
 19 22  1  0  0  0
 20 21  1  0  0  0
 32 33  1  0  0  0
 32 35  1  0  0  0
 32 45  1  0  0  0
 33 34  1  0  0  0
 35 36  1  0  0  0
 35 44  2  0  0  0
 36 37  1  0  0  0
 36 39  1  0  0  0
 36 43  1  0  0  0
 37 38  1  0  0  0
 39 40  1  0  0  0
 39 42  2  0  0  0
 40 41  1  0  0  0
 47 48  1  0  0  0
 47 49  1  0  0  0
 47 50  1  0  0  0
M  END
> <# Confs.>
25

> <Pharmacophore Match>
(1YET) [A] GDM275

> <Matching Features>
||||HBA:495067246627921590|HBA:495067385280122077|HBA:495067408768422079|HBA:495067414144822081

> <Relative Pharmacophore-Fit Score>
0.50

> <Score>
0.4990948

> <Source Database>
conformers.ldb

> <Active/Decoy>
unknown

> <Mol. Index>
119

$$$$
129
XX    ILIB11302300363D

 71 71  0  0  1  0              1 V2000
   40.6183  -46.7949   70.8648 C   0  0  0  0  0
   39.9147  -45.5649   70.3384 C   0  0  0  0  0
   39.0527  -45.7189   69.1051 C   0  0  0  0  0
   37.8834  -46.6646   69.2717 C   0  0  0  0  0
   37.3041  -47.2757   68.0085 C   0  0  0  0  0
   35.9269  -47.5228   68.2379 O   0  0  0  0  0
   35.8530  -48.1533   68.9746 H   0  0  0  0  0
   37.9534  -48.5759   67.5888 C   0  0  0  0  0
   39.2514  -48.3536   67.2331 O   0  0  0  0  0
   40.0217  -49.4737   66.7289 C   0  0  0  0  0
   41.5239  -49.1847   66.9651 C   0  0  0  0  0
   41.8250  -47.8400   66.6496 O   0  0  0  0  0
   43.1604  -47.6738   66.1902 C   0  0  0  0  0
   43.3057  -48.2079   65.2460 H   0  0  0  0  0
   43.8769  -48.0289   66.9369 H   0  0  0  0  0
   43.3340  -46.6084   66.0180 H   0  0  0  0  0
   41.9810  -49.5418   68.3887 C   0  0  0  0  0
   41.2604  -48.9423   69.5859 C   0  0  0  0  0
   41.6750  -49.6237   70.7581 O   0  0  0  0  0
   42.6350  -49.4958   70.8570 H   0  0  0  0  0
   41.5145  -47.4733   69.8530 C   0  0  0  0  0
   42.4144  -46.8465   69.2945 O   0  0  0  0  0
   40.1899  -49.1156   69.4777 H   0  0  0  0  0
   42.9294  -50.3153   68.5451 O   0  0  0  0  0
   42.0973  -49.8467   66.3016 H   0  0  0  0  0
   39.6618  -49.6707   65.2511 C   0  0  0  0  0
   39.9867  -48.4291   64.4441 C   0  0  0  0  0
   38.9377  -47.3327   64.2649 C   0  0  0  0  0
   37.7938  -47.9606   63.6009 N   0  0  0  0  0
   37.0467  -47.2748   63.5009 H   0  0  0  0  0
   38.0445  -48.2479   62.6557 H   0  0  0  0  0
   39.4056  -46.1398   63.4684 C   0  0  0  0  0
   40.0721  -44.9756   64.1643 C   0  0  0  0  0
   40.4614  -43.8645   63.2083 C   0  0  0  0  0
   41.8507  -43.8787   62.5804 C   0  0  0  0  0
   41.9537  -42.7468   61.7418 O   0  0  0  0  0
   41.4530  -42.9364   60.9300 H   0  0  0  0  0
   42.9899  -43.8475   63.5722 C   0  0  0  0  0
   43.3836  -45.0949   63.9427 O   0  0  0  0  0
   42.8804  -45.8289   63.5318 H   0  0  0  0  0
   43.5098  -42.8295   64.0075 O   0  0  0  0  0
   41.9702  -44.7744   61.9617 H   0  0  0  0  0
   39.6818  -42.9535   62.9485 O   0  0  0  0  0
   39.1467  -44.4480   65.2754 C   0  0  0  0  0
   39.6578  -43.2562   66.0875 C   0  0  0  0  0
   41.1868  -43.6375   66.9141 Cl  0  0  0  0  0
   38.9289  -42.9796   66.8539 H   0  0  0  0  0
   39.8313  -42.3856   65.4471 H   0  0  0  0  0
   38.9785  -45.2793   65.9733 H   0  0  0  0  0
   38.1646  -44.2022   64.8526 H   0  0  0  0  0
   40.9902  -45.3484   64.6157 H   0  0  0  0  0
   39.2548  -46.1212   62.2367 O   0  0  0  0  0
   38.6350  -46.9866   65.2509 H   0  0  0  0  0
   41.0914  -48.3134   63.9049 O   0  0  0  0  0
   40.3003  -50.9006   64.5938 C   0  0  0  0  0
   39.9610  -52.2631   65.2032 C   0  0  0  0  0
   40.7729  -53.5879   64.3359 Cl  0  0  0  0  0
   38.8842  -52.4457   65.1458 H   0  0  0  0  0
   40.2650  -52.3140   66.2530 H   0  0  0  0  0
   41.3896  -50.7701   64.6546 H   0  0  0  0  0
   40.0541  -50.9127   63.5245 H   0  0  0  0  0
   38.5702  -49.7831   65.1793 H   0  0  0  0  0
   39.7519  -50.3810   67.2874 H   0  0  0  0  0
   37.3769  -49.6560   67.5544 O   0  0  0  0  0
   37.3636  -46.5583   67.1854 H   0  0  0  0  0
   37.3976  -46.9010   70.3792 O   0  0  0  0  0
   38.6475  -44.7379   68.8336 H   0  0  0  0  0
   39.6940  -46.0472   68.2823 H   0  0  0  0  0
   40.0262  -44.4771   70.9039 O   0  0  0  0  0
   39.8648  -47.4949   71.2374 H   0  0  0  0  0
   41.2413  -46.5142   71.7223 H   0  0  0  0  0
  1  2  1  0  0  0
  1 21  1  0  0  0
  1 70  1  0  0  0
  1 71  1  0  0  0
  2  3  1  0  0  0
  2 69  2  0  0  0
  3  4  1  0  0  0
  3 67  1  0  0  0
  3 68  1  0  0  0
  4  5  1  0  0  0
  4 66  2  0  0  0
  5  6  1  0  0  0
  5  8  1  0  0  0
  5 65  1  0  0  0
  6  7  1  0  0  0
  8  9  1  0  0  0
  8 64  2  0  0  0
  9 10  1  0  0  0
 10 11  1  0  0  0
 10 26  1  0  0  0
 10 63  1  0  0  0
 11 12  1  0  0  0
 11 17  1  0  0  0
 11 25  1  0  0  0
 12 13  1  0  0  0
 13 14  1  0  0  0
 13 15  1  0  0  0
 13 16  1  0  0  0
 17 18  1  0  0  0
 17 24  2  0  0  0
 18 19  1  0  0  0
 18 21  1  0  0  0
 18 23  1  0  0  0
 19 20  1  0  0  0
 21 22  2  0  0  0
 26 27  1  0  0  0
 26 55  1  0  0  0
 26 62  1  0  0  0
 27 28  1  0  0  0
 27 54  2  0  0  0
 28 29  1  0  0  0
 28 32  1  0  0  0
 28 53  1  0  0  0
 29 30  1  0  0  0
 29 31  1  0  0  0
 32 33  1  0  0  0
 32 52  2  0  0  0
 33 34  1  0  0  0
 33 44  1  0  0  0
 33 51  1  0  0  0
 34 35  1  0  0  0
 34 43  2  0  0  0
 35 36  1  0  0  0
 35 38  1  0  0  0
 35 42  1  0  0  0
 36 37  1  0  0  0
 38 39  1  0  0  0
 38 41  2  0  0  0
 39 40  1  0  0  0
 44 45  1  0  0  0
 44 49  1  0  0  0
 44 50  1  0  0  0
 45 46  1  0  0  0
 45 47  1  0  0  0
 45 48  1  0  0  0
 55 56  1  0  0  0
 55 60  1  0  0  0
 55 61  1  0  0  0
 56 57  1  0  0  0
 56 58  1  0  0  0
 56 59  1  0  0  0
M  END
> <# Confs.>
25

> <Pharmacophore Match>
(1YET) [A] GDM275

> <Matching Features>
||||HBA:495067246627921590|HBA:495067385280122077|HBA:495067408768422079|HBA:495067414144822081

> <Relative Pharmacophore-Fit Score>
0.49

> <Score>
0.49295026

> <Source Database>
conformers.ldb

> <Active/Decoy>
unknown

> <Mol. Index>
129

$$$$
125
XX    ILIB11302300363D

 71 71  0  0  1  0              1 V2000
   43.3950  -44.0362   64.5354 C   0  0  0  0  0
   42.6176  -43.2366   65.4111 O   0  0  0  0  0
   42.2166  -42.0080   64.8180 C   0  0  0  0  0
   41.6328  -41.4475   65.5532 H   0  0  0  0  0
   41.5889  -42.1852   63.9400 H   0  0  0  0  0
   43.0909  -41.4130   64.5429 H   0  0  0  0  0
   43.7288  -45.3017   65.3399 C   0  0  0  0  0
   44.7753  -46.2282   64.7367 C   0  0  0  0  0
   45.2150  -47.1612   65.7698 N   0  0  0  0  0
   45.9025  -47.8061   65.3814 H   0  0  0  0  0
   45.6878  -46.6566   66.5183 H   0  0  0  0  0
   45.9847  -45.4851   64.1973 C   0  0  0  0  0
   45.6721  -44.2487   63.3678 C   0  0  0  0  0
   46.8952  -43.5921   63.0842 O   0  0  0  0  0
   46.8661  -42.8909   61.8464 C   0  0  0  0  0
   47.8417  -42.4230   61.6948 H   0  0  0  0  0
   46.1033  -42.1074   61.8607 H   0  0  0  0  0
   46.6804  -43.5831   61.0203 H   0  0  0  0  0
   44.7123  -43.3316   64.1418 C   0  0  0  0  0
   45.3601  -42.8706   65.3351 O   0  0  0  0  0
   46.2001  -42.4598   65.0673 H   0  0  0  0  0
   44.5055  -42.4329   63.5496 H   0  0  0  0  0
   45.2272  -44.6064   62.4315 H   0  0  0  0  0
   47.1361  -45.8906   64.3448 O   0  0  0  0  0
   44.3113  -46.7808   63.9137 H   0  0  0  0  0
   43.1251  -45.5833   66.3765 O   0  0  0  0  0
   42.5144  -44.3623   63.3459 C   0  0  0  0  0
   41.2309  -45.1200   63.6264 C   0  0  0  0  0
   39.9962  -44.3513   63.1992 C   0  0  0  0  0
   38.7261  -44.5908   63.9842 C   0  0  0  0  0
   37.6829  -43.8081   63.4617 O   0  0  0  0  0
   37.9413  -42.8729   63.5274 H   0  0  0  0  0
   38.8230  -44.3138   65.4677 C   0  0  0  0  0
   37.9444  -45.1283   66.3808 C   0  0  0  0  0
   38.6289  -46.4169   66.8499 C   0  0  0  0  0
   38.9518  -47.2086   65.7190 O   0  0  0  0  0
   38.1176  -47.4411   65.2764 H   0  0  0  0  0
   37.7663  -47.2358   67.8057 C   0  0  0  0  0
   36.5646  -47.6008   67.1423 O   0  0  0  0  0
   35.9974  -48.0516   67.7924 H   0  0  0  0  0
   38.4636  -48.5146   68.2130 C   0  0  0  0  0
   39.7636  -48.3894   68.9222 C   0  0  0  0  0
   40.6904  -49.3983   68.7546 O   0  0  0  0  0
   41.1101  -49.6063   67.4104 C   0  0  0  0  0
   41.8538  -50.4082   67.4113 H   0  0  0  0  0
   40.2707  -49.9225   66.7815 H   0  0  0  0  0
   41.5822  -48.7055   67.0043 H   0  0  0  0  0
   39.9724  -47.3642   69.7682 C   0  0  0  0  0
   41.1743  -47.0982   70.6167 C   0  0  0  0  0
   41.7442  -45.8463   70.2697 O   0  0  0  0  0
   41.8210  -45.8065   69.3015 H   0  0  0  0  0
   40.7359  -47.0412   72.0559 C   0  0  0  0  0
   41.5130  -46.2144   72.7990 O   0  0  0  0  0
   42.2464  -45.7906   72.3027 H   0  0  0  0  0
   39.7680  -47.6374   72.5119 O   0  0  0  0  0
   41.9502  -47.8641   70.5134 H   0  0  0  0  0
   39.1896  -46.6195   69.8990 H   0  0  0  0  0
   37.9622  -49.6128   67.9799 O   0  0  0  0  0
   37.5114  -46.6761   68.7130 H   0  0  0  0  0
   39.5731  -46.1524   67.3642 H   0  0  0  0  0
   37.0406  -45.3666   65.8353 H   0  0  0  0  0
   37.6650  -44.5076   67.2427 H   0  0  0  0  0
   39.5730  -43.4253   65.9050 O   0  0  0  0  0
   38.4538  -45.6459   63.8444 H   0  0  0  0  0
   40.0140  -43.5918   62.2301 O   0  0  0  0  0
   41.2550  -46.5284   63.0407 C   0  0  0  0  0
   40.3420  -47.0738   63.3036 H   0  0  0  0  0
   41.3255  -46.5200   61.9477 H   0  0  0  0  0
   42.1120  -47.0919   63.4216 H   0  0  0  0  0
   41.1662  -45.2337   64.7172 H   0  0  0  0  0
   42.8451  -44.0599   62.1979 O   0  0  0  0  0
  1  2  1  0  0  0
  1  7  1  0  0  0
  1 27  1  0  0  0
  1 19  1  0  0  0
  2  3  1  0  0  0
  3  4  1  0  0  0
  3  5  1  0  0  0
  3  6  1  0  0  0
  7  8  1  0  0  0
  7 26  2  0  0  0
  8  9  1  0  0  0
  8 12  1  0  0  0
  8 25  1  0  0  0
  9 10  1  0  0  0
  9 11  1  0  0  0
 12 13  1  0  0  0
 12 24  2  0  0  0
 13 14  1  0  0  0
 13 19  1  0  0  0
 13 23  1  0  0  0
 14 15  1  0  0  0
 15 16  1  0  0  0
 15 17  1  0  0  0
 15 18  1  0  0  0
 19 20  1  0  0  0
 19 22  1  0  0  0
 20 21  1  0  0  0
 27 28  1  0  0  0
 27 71  2  0  0  0
 28 29  1  0  0  0
 28 66  1  0  0  0
 28 70  1  0  0  0
 29 30  1  0  0  0
 29 65  2  0  0  0
 30 31  1  0  0  0
 30 33  1  0  0  0
 30 64  1  0  0  0
 31 32  1  0  0  0
 33 34  1  0  0  0
 33 63  2  0  0  0
 34 35  1  0  0  0
 34 61  1  0  0  0
 34 62  1  0  0  0
 35 36  1  0  0  0
 35 38  1  0  0  0
 35 60  1  0  0  0
 36 37  1  0  0  0
 38 39  1  0  0  0
 38 41  1  0  0  0
 38 59  1  0  0  0
 39 40  1  0  0  0
 41 42  1  0  0  0
 41 58  2  0  0  0
 42 43  1  0  0  0
 42 48  2  0  0  0
 43 44  1  0  0  0
 44 45  1  0  0  0
 44 46  1  0  0  0
 44 47  1  0  0  0
 48 49  1  0  0  0
 48 57  1  0  0  0
 49 50  1  0  0  0
 49 52  1  0  0  0
 49 56  1  0  0  0
 50 51  1  0  0  0
 52 53  1  0  0  0
 52 55  2  0  0  0
 53 54  1  0  0  0
 66 67  1  0  0  0
 66 68  1  0  0  0
 66 69  1  0  0  0
M  END
> <# Confs.>
25

> <Pharmacophore Match>
(1YET) [A] GDM275

> <Matching Features>
||||HBA:495067246627921590|HBA:495067385280122077|HBA:495067408768422079|HBA:495067414144822081

> <Relative Pharmacophore-Fit Score>
0.50

> <Score>
0.49898

> <Source Database>
conformers.ldb

> <Active/Decoy>
unknown

> <Mol. Index>
131

$$$$
136
XX    ILIB11302300363D

 64 64  0  0  1  0              1 V2000
   42.9410  -46.0785   66.2118 N   0  0  0  0  0
   41.9570  -47.1285   66.4453 C   0  0  0  0  0
   40.6175  -46.4422   66.2190 C   0  0  0  0  0
   39.7834  -46.9177   65.0410 C   0  0  0  0  0
   39.0131  -47.9743   65.5790 O   0  0  0  0  0
   38.1490  -48.5643   64.6157 C   0  0  0  0  0
   38.7336  -49.0396   63.8235 H   0  0  0  0  0
   37.4726  -47.8181   64.1908 H   0  0  0  0  0
   37.5517  -49.3318   65.1164 H   0  0  0  0  0
   38.8844  -45.8227   64.4638 C   0  0  0  0  0
   39.4575  -44.9807   63.3197 C   0  0  0  0  0
   38.4687  -44.0730   62.8626 O   0  0  0  0  0
   37.7359  -44.5984   62.4971 H   0  0  0  0  0
   40.7074  -44.2035   63.7394 C   0  0  0  0  0
   40.3776  -43.2885   64.7858 O   0  0  0  0  0
   39.6698  -42.7078   64.4596 H   0  0  0  0  0
   41.3399  -43.4186   62.5900 C   0  0  0  0  0
   42.7952  -43.1241   62.9196 C   0  0  0  0  0
   43.8130  -44.1950   62.5468 C   0  0  0  0  0
   44.9638  -44.3718   63.5500 C   0  0  0  0  0
   45.7608  -43.1864   63.5584 O   0  0  0  0  0
   46.0681  -43.0331   62.6493 H   0  0  0  0  0
   44.5238  -44.7039   64.9939 C   0  0  0  0  0
   43.7438  -46.0170   65.0797 C   0  0  0  0  0
   43.8378  -46.9039   64.2348 O   0  0  0  0  0
   45.7283  -44.7998   65.9381 C   0  0  0  0  0
   45.4156  -45.0502   66.9576 H   0  0  0  0  0
   46.2731  -43.8525   65.9874 H   0  0  0  0  0
   46.4235  -45.5797   65.6091 H   0  0  0  0  0
   43.8860  -43.8923   65.3655 H   0  0  0  0  0
   45.6103  -45.1788   63.1822 H   0  0  0  0  0
   43.2881  -45.1443   62.4154 H   0  0  0  0  0
   44.2125  -43.9052   61.5676 H   0  0  0  0  0
   43.1206  -42.0625   63.4504 O   0  0  0  0  0
   41.3163  -43.9810   61.6507 H   0  0  0  0  0
   40.8312  -42.4646   62.4197 H   0  0  0  0  0
   41.4412  -44.8976   64.1459 H   0  0  0  0  0
   39.6927  -45.6616   62.4938 H   0  0  0  0  0
   37.7407  -45.6472   64.8849 O   0  0  0  0  0
   40.4465  -47.2850   64.2484 H   0  0  0  0  0
   40.2397  -45.5137   66.9349 O   0  0  0  0  0
   42.1130  -47.7494   67.8318 C   0  0  0  0  0
   41.9264  -46.7256   68.8281 O   0  0  0  0  0
   40.9974  -46.4399   68.7958 H   0  0  0  0  0
   41.2374  -48.9538   68.1581 C   0  0  0  0  0
   41.4594  -49.4404   69.4858 O   0  0  0  0  0
   40.6002  -48.8191   70.4452 C   0  0  0  0  0
   39.5557  -49.0698   70.2389 H   0  0  0  0  0
   40.7341  -47.7329   70.4431 H   0  0  0  0  0
   40.8617  -49.2008   71.4350 H   0  0  0  0  0
   41.5208  -50.1368   67.2624 C   0  0  0  0  0
   42.3835  -50.0514   66.3840 O   0  0  0  0  0
   40.7575  -51.4358   67.4497 C   0  0  0  0  0
   39.2657  -51.2957   67.2847 C   0  0  0  0  0
   38.5623  -52.2010   68.0505 N   0  0  0  0  0
   37.5482  -52.2197   68.0343 H   0  0  0  0  0
   39.0221  -52.8733   68.6550 H   0  0  0  0  0
   38.7380  -50.4712   66.5442 O   0  0  0  0  0
   40.9499  -51.8137   68.4600 H   0  0  0  0  0
   41.1580  -52.1699   66.7408 H   0  0  0  0  0
   40.1749  -48.6939   68.0343 H   0  0  0  0  0
   43.1623  -48.0521   67.9347 H   0  0  0  0  0
   42.0934  -47.9183   65.6900 H   0  0  0  0  0
   42.9456  -45.2956   66.8599 H   0  0  0  0  0
  1  2  1  0  0  0
  1 24  1  0  0  0
  1 64  1  0  0  0
  2  3  1  0  0  0
  2 42  1  0  0  0
  2 63  1  0  0  0
  3  4  1  0  0  0
  3 41  2  0  0  0
  4  5  1  0  0  0
  4 10  1  0  0  0
  4 40  1  0  0  0
  5  6  1  0  0  0
  6  7  1  0  0  0
  6  8  1  0  0  0
  6  9  1  0  0  0
 10 11  1  0  0  0
 10 39  2  0  0  0
 11 12  1  0  0  0
 11 14  1  0  0  0
 11 38  1  0  0  0
 12 13  1  0  0  0
 14 15  1  0  0  0
 14 17  1  0  0  0
 14 37  1  0  0  0
 15 16  1  0  0  0
 17 18  1  0  0  0
 17 35  1  0  0  0
 17 36  1  0  0  0
 18 19  1  0  0  0
 18 34  2  0  0  0
 19 20  1  0  0  0
 19 32  1  0  0  0
 19 33  1  0  0  0
 20 21  1  0  0  0
 20 23  1  0  0  0
 20 31  1  0  0  0
 21 22  1  0  0  0
 23 24  1  0  0  0
 23 26  1  0  0  0
 23 30  1  0  0  0
 24 25  2  0  0  0
 26 27  1  0  0  0
 26 28  1  0  0  0
 26 29  1  0  0  0
 42 43  1  0  0  0
 42 45  1  0  0  0
 42 62  1  0  0  0
 43 44  1  0  0  0
 45 46  1  0  0  0
 45 51  1  0  0  0
 45 61  1  0  0  0
 46 47  1  0  0  0
 47 48  1  0  0  0
 47 49  1  0  0  0
 47 50  1  0  0  0
 51 52  2  0  0  0
 51 53  1  0  0  0
 53 54  1  0  0  0
 53 59  1  0  0  0
 53 60  1  0  0  0
 54 55  1  0  0  0
 54 58  2  0  0  0
 55 56  1  0  0  0
 55 57  1  0  0  0
M  END
> <# Confs.>
25

> <Pharmacophore Match>
(1YET) [A] GDM275

> <Matching Features>
||||HBA:495067246627921590|HBA:495067385280122077|HBA:495067408768422079|HBA:495067414144822081

> <Relative Pharmacophore-Fit Score>
0.49

> <Score>
0.494963

> <Source Database>
conformers.ldb

> <Active/Decoy>
unknown

> <Mol. Index>
144

$$$$
99
XX    ILIB11302300363D

 67 67  0  0  1  0              1 V2000
   40.6117  -43.0937   61.8652 C   0  0  0  0  0
   40.7339  -44.2969   61.2184 O   0  0  0  0  0
   40.8414  -44.1792   60.2506 H   0  0  0  0  0
   40.6280  -42.0260   61.2971 O   0  0  0  0  0
   40.4354  -43.3217   63.3324 C   0  0  0  0  0
   41.0999  -44.5220   63.7243 O   0  0  0  0  0
   42.4322  -44.4616   63.9521 C   0  0  0  0  0
   42.9638  -45.7901   64.3809 C   0  0  0  0  0
   44.1349  -45.8222   65.1103 O   0  0  0  0  0
   44.0822  -45.1199   66.3466 C   0  0  0  0  0
   45.0062  -45.3297   66.8941 H   0  0  0  0  0
   44.0277  -44.0390   66.1790 H   0  0  0  0  0
   43.2412  -45.4610   66.9599 H   0  0  0  0  0
   42.3751  -46.9192   63.9420 C   0  0  0  0  0
   42.7613  -48.3530   64.2155 C   0  0  0  0  0
   43.9128  -48.4433   65.0285 O   0  0  0  0  0
   44.2716  -49.3432   64.9381 H   0  0  0  0  0
   41.5835  -49.1005   64.8708 C   0  0  0  0  0
   41.8880  -50.4170   65.5964 C   0  0  0  0  0
   42.4475  -51.3227   64.5897 N   0  0  0  0  0
   42.7316  -52.1921   65.0376 H   0  0  0  0  0
   41.7210  -51.5803   63.9215 H   0  0  0  0  0
   40.6826  -51.0828   66.2956 C   0  0  0  0  0
   39.6736  -51.4096   65.3323 O   0  0  0  0  0
   39.3351  -50.5774   64.9616 H   0  0  0  0  0
   40.0322  -50.2558   67.4137 C   0  0  0  0  0
   39.0651  -51.0514   68.0950 O   0  0  0  0  0
   39.5040  -51.8643   68.4007 H   0  0  0  0  0
   41.0257  -49.8126   68.4752 C   0  0  0  0  0
   41.2601  -48.3118   68.6066 C   0  0  0  0  0
   42.3847  -48.0531   69.4258 O   0  0  0  0  0
   43.6001  -47.9819   68.6905 C   0  0  0  0  0
   43.8220  -48.9406   68.2118 H   0  0  0  0  0
   43.5486  -47.1868   67.9405 H   0  0  0  0  0
   44.4084  -47.7482   69.3881 H   0  0  0  0  0
   40.1070  -47.5833   69.2813 C   0  0  0  0  0
   40.1296  -46.0616   69.2335 C   0  0  0  0  0
   39.0962  -45.5233   70.0275 O   0  0  0  0  0
   38.2500  -45.8890   69.7198 H   0  0  0  0  0
   40.0506  -45.5005   67.8240 C   0  0  0  0  0
   38.6992  -45.4877   67.1419 C   0  0  0  0  0
   38.7521  -45.1798   65.6604 C   0  0  0  0  0
   38.6529  -43.7189   65.2343 C   0  0  0  0  0
   39.5104  -42.9398   66.0470 O   0  0  0  0  0
   39.0414  -41.6102   66.2310 C   0  0  0  0  0
   39.0031  -41.0761   65.2774 H   0  0  0  0  0
   38.0536  -41.6138   66.7008 H   0  0  0  0  0
   39.7386  -41.0890   66.8929 H   0  0  0  0  0
   38.9677  -43.5044   63.7532 C   0  0  0  0  0
   38.0552  -43.5170   62.9240 O   0  0  0  0  0
   37.6086  -43.4243   65.4034 H   0  0  0  0  0
   38.8438  -46.0923   64.8385 O   0  0  0  0  0
   38.0502  -44.7554   67.6311 H   0  0  0  0  0
   38.2374  -46.4741   67.2559 H   0  0  0  0  0
   41.0695  -45.1077   67.2548 O   0  0  0  0  0
   41.0700  -45.7248   69.6823 H   0  0  0  0  0
   39.2038  -48.1924   69.8543 O   0  0  0  0  0
   41.4045  -47.8935   67.6030 H   0  0  0  0  0
   41.5981  -50.6287   69.1993 O   0  0  0  0  0
   39.4923  -49.3927   67.0187 H   0  0  0  0  0
   41.0106  -52.0430   66.7163 H   0  0  0  0  0
   42.6562  -50.2122   66.3484 H   0  0  0  0  0
   40.4281  -48.6808   64.7711 O   0  0  0  0  0
   42.9766  -48.8363   63.2559 H   0  0  0  0  0
   41.5110  -46.8314   63.2834 H   0  0  0  0  0
   43.1358  -43.4649   63.8596 O   0  0  0  0  0
   40.8425  -42.4584   63.8701 H   0  0  0  0  0
  1  2  1  0  0  0
  1  4  2  0  0  0
  1  5  1  0  0  0
  2  3  1  0  0  0
  5  6  1  0  0  0
  5 49  1  0  0  0
  5 67  1  0  0  0
  6  7  1  0  0  0
  7  8  1  0  0  0
  7 66  2  0  0  0
  8  9  1  0  0  0
  8 14  2  0  0  0
  9 10  1  0  0  0
 10 11  1  0  0  0
 10 12  1  0  0  0
 10 13  1  0  0  0
 14 15  1  0  0  0
 14 65  1  0  0  0
 15 16  1  0  0  0
 15 18  1  0  0  0
 15 64  1  0  0  0
 16 17  1  0  0  0
 18 19  1  0  0  0
 18 63  2  0  0  0
 19 20  1  0  0  0
 19 23  1  0  0  0
 19 62  1  0  0  0
 20 21  1  0  0  0
 20 22  1  0  0  0
 23 24  1  0  0  0
 23 26  1  0  0  0
 23 61  1  0  0  0
 24 25  1  0  0  0
 26 27  1  0  0  0
 26 29  1  0  0  0
 26 60  1  0  0  0
 27 28  1  0  0  0
 29 30  1  0  0  0
 29 59  2  0  0  0
 30 31  1  0  0  0
 30 36  1  0  0  0
 30 58  1  0  0  0
 31 32  1  0  0  0
 32 33  1  0  0  0
 32 34  1  0  0  0
 32 35  1  0  0  0
 36 37  1  0  0  0
 36 57  2  0  0  0
 37 38  1  0  0  0
 37 40  1  0  0  0
 37 56  1  0  0  0
 38 39  1  0  0  0
 40 41  1  0  0  0
 40 55  2  0  0  0
 41 42  1  0  0  0
 41 53  1  0  0  0
 41 54  1  0  0  0
 42 43  1  0  0  0
 42 52  2  0  0  0
 43 44  1  0  0  0
 43 49  1  0  0  0
 43 51  1  0  0  0
 44 45  1  0  0  0
 45 46  1  0  0  0
 45 47  1  0  0  0
 45 48  1  0  0  0
 49 50  2  0  0  0
M  END
> <# Confs.>
25

> <Pharmacophore Match>
(1YET) [A] GDM275

> <Matching Features>
||||HBA:495067246627921590|HBA:495067385280122077|HBA:495067408768422079|HBA:495067414144822081

> <Relative Pharmacophore-Fit Score>
0.49

> <Score>
0.49444

> <Source Database>
conformers.ldb

> <Active/Decoy>
unknown

> <Mol. Index>
101

$$$$
122
XX    ILIB11302300363D

 71 71  0  0  1  0              1 V2000
   38.8661  -50.6736   66.9803 C   0  0  0  0  0
   38.6595  -49.6443   67.8514 O   0  0  0  0  0
   37.8565  -49.7848   68.3973 H   0  0  0  0  0
   38.1467  -51.6518   66.9138 O   0  0  0  0  0
   40.1018  -50.4303   66.1726 C   0  0  0  0  0
   40.6577  -49.1856   66.5902 O   0  0  0  0  0
   41.7584  -49.1994   67.3861 C   0  0  0  0  0
   42.2304  -47.7699   67.6078 C   0  0  0  0  0
   43.5418  -47.7751   68.1468 O   0  0  0  0  0
   44.4799  -48.4133   67.2892 C   0  0  0  0  0
   45.4648  -48.3653   67.7623 H   0  0  0  0  0
   44.2129  -49.4648   67.1498 H   0  0  0  0  0
   44.5341  -47.9059   66.3223 H   0  0  0  0  0
   41.2698  -47.0463   68.5698 C   0  0  0  0  0
   41.3915  -47.6096   69.8776 O   0  0  0  0  0
   42.3065  -47.4664   70.1730 H   0  0  0  0  0
   41.5299  -45.5343   68.6394 C   0  0  0  0  0
   42.8266  -45.2900   69.1660 O   0  0  0  0  0
   43.0058  -44.3377   69.0738 H   0  0  0  0  0
   40.5170  -44.7964   69.5141 C   0  0  0  0  0
   39.0519  -44.7942   69.1222 C   0  0  0  0  0
   38.4648  -45.8949   69.7886 O   0  0  0  0  0
   38.3441  -45.6459   70.7212 H   0  0  0  0  0
   38.7304  -44.8800   67.6401 C   0  0  0  0  0
   39.0942  -43.6985   66.7421 C   0  0  0  0  0
   39.9711  -42.7932   67.3699 O   0  0  0  0  0
   39.4370  -42.2031   67.9287 H   0  0  0  0  0
   39.7472  -44.0939   65.4247 C   0  0  0  0  0
   40.1040  -42.9669   64.4763 C   0  0  0  0  0
   40.5502  -43.4293   63.1050 C   0  0  0  0  0
   42.0182  -43.3082   62.7453 C   0  0  0  0  0
   42.3263  -41.9264   62.7656 O   0  0  0  0  0
   41.9534  -41.5303   61.9582 H   0  0  0  0  0
   42.9659  -44.0312   63.6886 C   0  0  0  0  0
   43.0043  -45.5223   63.7170 C   0  0  0  0  0
   42.3238  -46.3157   62.8797 C   0  0  0  0  0
   42.3687  -47.8258   62.9520 C   0  0  0  0  0
   42.6566  -48.3855   61.6274 N   0  0  0  0  0
   42.6969  -49.4022   61.6850 H   0  0  0  0  0
   43.5854  -48.0886   61.3277 H   0  0  0  0  0
   41.0437  -48.3893   63.5308 C   0  0  0  0  0
   39.9456  -48.0795   62.6664 O   0  0  0  0  0
   39.8095  -47.1176   62.6904 H   0  0  0  0  0
   41.0400  -49.9180   63.7502 C   0  0  0  0  0
   42.2715  -50.3384   64.3139 O   0  0  0  0  0
   42.6203  -51.6628   63.9323 C   0  0  0  0  0
   43.5826  -51.9101   64.3901 H   0  0  0  0  0
   41.8711  -52.3728   64.2942 H   0  0  0  0  0
   42.7230  -51.7432   62.8462 H   0  0  0  0  0
   39.8606  -50.3025   64.6589 C   0  0  0  0  0
   38.7445  -50.4855   64.1674 O   0  0  0  0  0
   40.8821  -50.4244   62.7878 H   0  0  0  0  0
   40.8458  -47.8846   64.4822 H   0  0  0  0  0
   43.1889  -48.1195   63.6191 H   0  0  0  0  0
   41.6923  -45.8917   62.1046 H   0  0  0  0  0
   43.6397  -45.9543   64.4849 H   0  0  0  0  0
   43.7176  -43.4167   64.4470 O   0  0  0  0  0
   42.1908  -43.6674   61.7258 H   0  0  0  0  0
   39.7428  -43.9171   62.3123 O   0  0  0  0  0
   39.2257  -42.3274   64.3369 H   0  0  0  0  0
   40.8908  -42.3578   64.9333 H   0  0  0  0  0
   39.9671  -45.2696   65.1365 O   0  0  0  0  0
   38.1604  -43.1772   66.5072 H   0  0  0  0  0
   38.1354  -45.8544   67.1750 O   0  0  0  0  0
   38.5800  -43.8784   69.4989 H   0  0  0  0  0
   40.8688  -44.2233   70.5504 O   0  0  0  0  0
   41.5059  -45.1012   67.6359 H   0  0  0  0  0
   40.2373  -47.2223   68.2467 H   0  0  0  0  0
   42.2390  -47.2558   66.6374 H   0  0  0  0  0
   42.3071  -50.1930   67.8403 O   0  0  0  0  0
   40.7883  -51.2668   66.3389 H   0  0  0  0  0
  1  2  1  0  0  0
  1  4  2  0  0  0
  1  5  1  0  0  0
  2  3  1  0  0  0
  5  6  1  0  0  0
  5 50  1  0  0  0
  5 71  1  0  0  0
  6  7  1  0  0  0
  7  8  1  0  0  0
  7 70  2  0  0  0
  8  9  1  0  0  0
  8 14  1  0  0  0
  8 69  1  0  0  0
  9 10  1  0  0  0
 10 11  1  0  0  0
 10 12  1  0  0  0
 10 13  1  0  0  0
 14 15  1  0  0  0
 14 17  1  0  0  0
 14 68  1  0  0  0
 15 16  1  0  0  0
 17 18  1  0  0  0
 17 20  1  0  0  0
 17 67  1  0  0  0
 18 19  1  0  0  0
 20 21  1  0  0  0
 20 66  2  0  0  0
 21 22  1  0  0  0
 21 24  1  0  0  0
 21 65  1  0  0  0
 22 23  1  0  0  0
 24 25  1  0  0  0
 24 64  2  0  0  0
 25 26  1  0  0  0
 25 28  1  0  0  0
 25 63  1  0  0  0
 26 27  1  0  0  0
 28 29  1  0  0  0
 28 62  2  0  0  0
 29 30  1  0  0  0
 29 60  1  0  0  0
 29 61  1  0  0  0
 30 31  1  0  0  0
 30 59  2  0  0  0
 31 32  1  0  0  0
 31 34  1  0  0  0
 31 58  1  0  0  0
 32 33  1  0  0  0
 34 35  1  0  0  0
 34 57  2  0  0  0
 35 36  2  0  0  0
 35 56  1  0  0  0
 36 37  1  0  0  0
 36 55  1  0  0  0
 37 38  1  0  0  0
 37 41  1  0  0  0
 37 54  1  0  0  0
 38 39  1  0  0  0
 38 40  1  0  0  0
 41 42  1  0  0  0
 41 44  1  0  0  0
 41 53  1  0  0  0
 42 43  1  0  0  0
 44 45  1  0  0  0
 44 50  1  0  0  0
 44 52  1  0  0  0
 45 46  1  0  0  0
 46 47  1  0  0  0
 46 48  1  0  0  0
 46 49  1  0  0  0
 50 51  2  0  0  0
M  END
> <# Confs.>
20

> <Pharmacophore Match>
(1YET) [A] GDM275

> <Matching Features>
||||HBA:495067246627921590|HBA:495067385280122077|HBA:495067408768422079|HBA:495067414144822081

> <Relative Pharmacophore-Fit Score>
0.51

> <Score>
0.5053169

> <Source Database>
conformers.ldb

> <Active/Decoy>
unknown

> <Mol. Index>
126

$$$$
145
XX    ILIB11302300363D

 52 52  0  0  1  0              1 V2000
   39.8992  -43.3536   62.3329 C   0  0  0  0  0
   39.4371  -44.3011   63.1882 O   0  0  0  0  0
   38.4759  -44.4580   63.0755 H   0  0  0  0  0
   39.1915  -42.7588   61.5334 O   0  0  0  0  0
   41.3717  -43.1264   62.5352 C   0  0  0  0  0
   41.8519  -42.1427   61.6452 O   0  0  0  0  0
   41.3505  -41.3220   61.7944 H   0  0  0  0  0
   41.7501  -42.7311   63.9482 C   0  0  0  0  0
   41.7814  -41.5425   64.2720 O   0  0  0  0  0
   42.0314  -43.8389   64.9460 C   0  0  0  0  0
   42.3595  -43.2130   66.1803 O   0  0  0  0  0
   41.5670  -42.7432   66.4910 H   0  0  0  0  0
   43.2083  -44.7046   64.4952 C   0  0  0  0  0
   44.3685  -43.8727   64.3808 O   0  0  0  0  0
   44.5552  -43.4950   65.2565 H   0  0  0  0  0
   43.5525  -45.8817   65.4196 C   0  0  0  0  0
   44.6958  -46.6375   64.8752 N   0  0  0  0  0
   44.4659  -47.0136   63.9560 H   0  0  0  0  0
   44.8995  -47.4359   65.4748 H   0  0  0  0  0
   42.3923  -46.8442   65.5333 C   0  0  0  0  0
   41.8035  -47.1004   66.9049 C   0  0  0  0  0
   40.6587  -48.0934   66.9282 C   0  0  0  0  0
   40.9646  -49.5559   67.1152 C   0  0  0  0  0
   41.6207  -49.6615   68.3663 O   0  0  0  0  0
   40.9780  -49.4700   69.0702 H   0  0  0  0  0
   41.9589  -50.0782   66.0877 C   0  0  0  0  0
   43.1740  -49.9449   66.2318 O   0  0  0  0  0
   41.4267  -50.7258   64.8461 C   0  0  0  0  0
   42.3798  -51.0313   63.9065 O   0  0  0  0  0
   41.8777  -51.6465   62.7254 C   0  0  0  0  0
   41.4035  -52.6064   62.9547 H   0  0  0  0  0
   42.7258  -51.8385   62.0620 H   0  0  0  0  0
   41.1825  -50.9839   62.1995 H   0  0  0  0  0
   40.1018  -50.9426   64.7443 C   0  0  0  0  0
   39.0569  -50.6333   65.7782 C   0  0  0  0  0
   38.1747  -51.7336   65.9267 O   0  0  0  0  0
   37.0577  -51.6598   65.0498 C   0  0  0  0  0
   37.3804  -51.6854   64.0048 H   0  0  0  0  0
   36.4789  -50.7512   65.2426 H   0  0  0  0  0
   36.4179  -52.5262   65.2366 H   0  0  0  0  0
   39.7152  -50.4196   67.1292 C   0  0  0  0  0
   39.2463  -50.8780   68.1704 O   0  0  0  0  0
   38.5047  -49.7214   65.5207 H   0  0  0  0  0
   39.7033  -51.3807   63.8326 H   0  0  0  0  0
   39.4977  -47.6823   66.7499 O   0  0  0  0  0
   42.6053  -47.4991   67.5467 H   0  0  0  0  0
   41.4846  -46.1437   67.3156 H   0  0  0  0  0
   41.9728  -47.4444   64.5281 O   0  0  0  0  0
   43.8412  -45.5344   66.4090 H   0  0  0  0  0
   43.0115  -45.0965   63.4884 H   0  0  0  0  0
   41.1163  -44.4270   65.0797 H   0  0  0  0  0
   41.8839  -44.0672   62.3048 H   0  0  0  0  0
  1  2  1  0  0  0
  1  4  2  0  0  0
  1  5  1  0  0  0
  2  3  1  0  0  0
  5  6  1  0  0  0
  5  8  1  0  0  0
  5 52  1  0  0  0
  6  7  1  0  0  0
  8  9  2  0  0  0
  8 10  1  0  0  0
 10 11  1  0  0  0
 10 13  1  0  0  0
 10 51  1  0  0  0
 11 12  1  0  0  0
 13 14  1  0  0  0
 13 16  1  0  0  0
 13 50  1  0  0  0
 14 15  1  0  0  0
 16 17  1  0  0  0
 16 20  1  0  0  0
 16 49  1  0  0  0
 17 18  1  0  0  0
 17 19  1  0  0  0
 20 21  1  0  0  0
 20 48  2  0  0  0
 21 22  1  0  0  0
 21 46  1  0  0  0
 21 47  1  0  0  0
 22 23  1  0  0  0
 22 45  2  0  0  0
 23 24  1  0  0  0
 23 26  1  0  0  0
 23 41  1  0  0  0
 24 25  1  0  0  0
 26 27  2  0  0  0
 26 28  1  0  0  0
 28 29  1  0  0  0
 28 34  2  0  0  0
 29 30  1  0  0  0
 30 31  1  0  0  0
 30 32  1  0  0  0
 30 33  1  0  0  0
 34 35  1  0  0  0
 34 44  1  0  0  0
 35 36  1  0  0  0
 35 41  1  0  0  0
 35 43  1  0  0  0
 36 37  1  0  0  0
 37 38  1  0  0  0
 37 39  1  0  0  0
 37 40  1  0  0  0
 41 42  2  0  0  0
M  END
> <# Confs.>
25

> <Pharmacophore Match>
(1YET) [A] GDM275

> <Matching Features>
||||HBA:495067246627921590|HBA:495067385280122077|HBA:495067408768422079|HBA:495067414144822081

> <Relative Pharmacophore-Fit Score>
0.52

> <Score>
0.52164763

> <Source Database>
conformers.ldb

> <Active/Decoy>
unknown

> <Mol. Index>
139

$$$$
163
XX    ILIB11302300363D

 68 68  0  0  1  0              1 V2000
   38.8773  -51.2449   65.6578 C   0  0  0  0  0
   38.6554  -50.5096   66.9801 C   0  0  0  0  0
   37.5875  -50.6108   67.5893 O   0  0  0  0  0
   39.8135  -49.6931   67.5602 C   0  0  0  0  0
   41.0576  -50.5455   67.8171 C   0  0  0  0  0
   41.0742  -51.3804   68.7223 O   0  0  0  0  0
   42.2532  -50.3540   66.8755 C   0  0  0  0  0
   43.1586  -51.4359   66.9731 O   0  0  0  0  0
   42.8594  -52.4822   66.0593 C   0  0  0  0  0
   42.9750  -52.1306   65.0300 H   0  0  0  0  0
   41.8444  -52.8587   66.2161 H   0  0  0  0  0
   43.5651  -53.2997   66.2298 H   0  0  0  0  0
   43.0032  -49.0451   67.1981 C   0  0  0  0  0
   43.7135  -49.1890   68.4251 O   0  0  0  0  0
   43.0656  -49.3833   69.1227 H   0  0  0  0  0
   43.9850  -48.6487   66.0757 C   0  0  0  0  0
   43.2453  -48.4670   64.8714 O   0  0  0  0  0
   43.8853  -48.3517   64.1489 H   0  0  0  0  0
   44.8471  -47.3952   66.3523 C   0  0  0  0  0
   45.8899  -47.7679   67.2658 O   0  0  0  0  0
   45.4726  -48.0102   68.1096 H   0  0  0  0  0
   44.1367  -46.1484   66.9297 C   0  0  0  0  0
   45.1282  -45.1494   67.0625 O   0  0  0  0  0
   44.8596  -44.2540   68.1339 C   0  0  0  0  0
   44.8912  -44.7851   69.0893 H   0  0  0  0  0
   43.8874  -43.7696   68.0029 H   0  0  0  0  0
   45.6355  -43.4832   68.1389 H   0  0  0  0  0
   42.9449  -45.6202   66.1027 C   0  0  0  0  0
   43.2633  -45.1915   64.6642 C   0  0  0  0  0
   44.1891  -44.1153   64.6736 O   0  0  0  0  0
   44.4537  -43.9480   63.7528 H   0  0  0  0  0
   42.0158  -44.7169   63.9315 C   0  0  0  0  0
   41.9352  -43.6444   63.3442 O   0  0  0  0  0
   41.0498  -45.6791   64.0127 O   0  0  0  0  0
   39.8716  -45.4715   63.3519 C   0  0  0  0  0
   39.5965  -44.5360   62.6106 O   0  0  0  0  0
   38.9009  -46.5776   63.7174 C   0  0  0  0  0
   37.7226  -46.4521   62.9479 O   0  0  0  0  0
   37.9609  -46.5681   62.0124 H   0  0  0  0  0
   39.4158  -47.9947   63.5392 C   0  0  0  0  0
   40.4136  -48.2338   62.8591 O   0  0  0  0  0
   38.6050  -49.0933   64.2052 C   0  0  0  0  0
   39.3638  -50.3731   64.5090 C   0  0  0  0  0
   40.2960  -50.7581   63.7998 O   0  0  0  0  0
   37.7599  -49.3407   63.5550 H   0  0  0  0  0
   38.2139  -48.6897   65.1430 H   0  0  0  0  0
   38.6281  -46.4298   64.7688 H   0  0  0  0  0
   43.7026  -46.0069   64.0847 H   0  0  0  0  0
   42.5268  -44.7486   66.6240 H   0  0  0  0  0
   42.1497  -46.3726   66.1027 H   0  0  0  0  0
   43.7855  -46.3906   67.9417 H   0  0  0  0  0
   45.3620  -47.1055   65.4292 H   0  0  0  0  0
   44.6703  -49.4908   65.9131 H   0  0  0  0  0
   42.2748  -48.2412   67.3263 H   0  0  0  0  0
   41.8611  -50.3112   65.8549 H   0  0  0  0  0
   39.3802  -48.9687   68.8238 C   0  0  0  0  0
   38.7878  -47.5882   68.6039 C   0  0  0  0  0
   37.9017  -47.6268   67.9804 H   0  0  0  0  0
   38.5052  -47.1448   69.5635 H   0  0  0  0  0
   39.5210  -46.9135   68.1286 H   0  0  0  0  0
   40.2523  -48.8746   69.4996 H   0  0  0  0  0
   38.6452  -49.5820   69.3546 H   0  0  0  0  0
   40.0662  -48.9232   66.8045 H   0  0  0  0  0
   37.6215  -51.9876   65.2059 C   0  0  0  0  0
   37.7971  -52.5187   64.2640 H   0  0  0  0  0
   37.3107  -52.7226   65.9559 H   0  0  0  0  0
   36.7838  -51.2998   65.0477 H   0  0  0  0  0
   39.6535  -51.9959   65.8499 H   0  0  0  0  0
  1  2  1  0  0  0
  1 43  1  0  0  0
  1 64  1  0  0  0
  1 68  1  0  0  0
  2  3  2  0  0  0
  2  4  1  0  0  0
  4  5  1  0  0  0
  4 56  1  0  0  0
  4 63  1  0  0  0
  5  6  2  0  0  0
  5  7  1  0  0  0
  7  8  1  0  0  0
  7 13  1  0  0  0
  7 55  1  0  0  0
  8  9  1  0  0  0
  9 10  1  0  0  0
  9 11  1  0  0  0
  9 12  1  0  0  0
 13 14  1  0  0  0
 13 16  1  0  0  0
 13 54  1  0  0  0
 14 15  1  0  0  0
 16 17  1  0  0  0
 16 19  1  0  0  0
 16 53  1  0  0  0
 17 18  1  0  0  0
 19 20  1  0  0  0
 19 22  1  0  0  0
 19 52  1  0  0  0
 20 21  1  0  0  0
 22 23  1  0  0  0
 22 28  1  0  0  0
 22 51  1  0  0  0
 23 24  1  0  0  0
 24 25  1  0  0  0
 24 26  1  0  0  0
 24 27  1  0  0  0
 28 29  1  0  0  0
 28 49  1  0  0  0
 28 50  1  0  0  0
 29 30  1  0  0  0
 29 32  1  0  0  0
 29 48  1  0  0  0
 30 31  1  0  0  0
 32 33  2  0  0  0
 32 34  1  0  0  0
 34 35  1  0  0  0
 35 36  2  0  0  0
 35 37  1  0  0  0
 37 38  1  0  0  0
 37 40  1  0  0  0
 37 47  1  0  0  0
 38 39  1  0  0  0
 40 41  2  0  0  0
 40 42  1  0  0  0
 42 43  1  0  0  0
 42 45  1  0  0  0
 42 46  1  0  0  0
 43 44  2  0  0  0
 56 57  1  0  0  0
 56 61  1  0  0  0
 56 62  1  0  0  0
 57 58  1  0  0  0
 57 59  1  0  0  0
 57 60  1  0  0  0
 64 65  1  0  0  0
 64 66  1  0  0  0
 64 67  1  0  0  0
M  END
> <# Confs.>
7

> <Pharmacophore Match>
(1YET) [A] GDM275

> <Matching Features>
||||HBA:495067246627921590|HBA:495067385280122077|HBA:495067408768422079|HBA:495067414144822081

> <Relative Pharmacophore-Fit Score>
0.50

> <Score>
0.49811414

> <Source Database>
conformers.ldb

> <Active/Decoy>
unknown

> <Mol. Index>
160

$$$$
128
XX    ILIB11302300363D

 71 71  0  0  1  0              1 V2000
   41.9140  -44.6460   64.5580 O   0  0  0  0  0
   43.0924  -45.3975   64.8627 C   0  0  0  0  0
   43.1594  -45.6089   66.3638 C   0  0  0  0  0
   42.6726  -44.7707   67.1284 O   0  0  0  0  0
   43.8101  -46.8615   66.9277 C   0  0  0  0  0
   45.1538  -46.8197   66.4565 O   0  0  0  0  0
   45.7091  -48.1159   66.2758 C   0  0  0  0  0
   45.1693  -48.6541   65.4908 H   0  0  0  0  0
   45.6814  -48.6848   67.2101 H   0  0  0  0  0
   46.7514  -48.0024   65.9668 H   0  0  0  0  0
   43.7342  -46.9282   68.4608 C   0  0  0  0  0
   44.3971  -45.7941   69.0189 O   0  0  0  0  0
   43.8892  -44.9976   68.7900 H   0  0  0  0  0
   42.3399  -47.0512   69.0614 C   0  0  0  0  0
   41.6338  -48.3186   68.5930 C   0  0  0  0  0
   42.1548  -49.4281   68.8273 O   0  0  0  0  0
   40.3236  -48.2440   67.8579 C   0  0  0  0  0
   39.3746  -47.5955   68.7563 N   0  0  0  0  0
   38.4798  -47.4779   68.2833 H   0  0  0  0  0
   39.1931  -48.1888   69.5652 H   0  0  0  0  0
   39.7723  -49.5837   67.4087 C   0  0  0  0  0
   39.5174  -50.4572   68.2420 O   0  0  0  0  0
   39.5171  -49.8437   65.9360 C   0  0  0  0  0
   39.6801  -51.3104   65.5633 C   0  0  0  0  0
   38.7115  -52.0760   65.6205 O   0  0  0  0  0
   41.0288  -51.8322   65.1021 C   0  0  0  0  0
   41.3951  -51.1166   63.9405 O   0  0  0  0  0
   40.8718  -51.4713   63.2003 H   0  0  0  0  0
   42.1358  -51.6945   66.1215 C   0  0  0  0  0
   41.8650  -52.3681   67.2700 O   0  0  0  0  0
   41.0019  -52.8363   67.2851 H   0  0  0  0  0
   43.1640  -51.0542   65.9533 O   0  0  0  0  0
   40.9453  -52.8930   64.8395 H   0  0  0  0  0
   38.1401  -49.3077   65.5341 C   0  0  0  0  0
   37.7278  -49.4918   64.0738 C   0  0  0  0  0
   38.8604  -48.6809   62.9659 Cl  0  0  0  0  0
   36.7363  -49.0607   63.9012 H   0  0  0  0  0
   37.6935  -50.5521   63.8010 H   0  0  0  0  0
   38.1400  -48.2302   65.7481 H   0  0  0  0  0
   37.3733  -49.7468   66.1847 H   0  0  0  0  0
   40.2899  -49.2959   65.3802 H   0  0  0  0  0
   40.4577  -47.6223   66.9662 H   0  0  0  0  0
   42.2972  -46.9933   70.5970 C   0  0  0  0  0
   43.0969  -48.0572   71.3534 C   0  0  0  0  0
   42.9574  -47.8489   73.1151 Cl  0  0  0  0  0
   44.1575  -47.9868   71.0969 H   0  0  0  0  0
   42.7485  -49.0649   71.1058 H   0  0  0  0  0
   41.2457  -47.0889   70.8994 H   0  0  0  0  0
   42.6195  -45.9976   70.9269 H   0  0  0  0  0
   41.7118  -46.2380   68.6851 H   0  0  0  0  0
   44.3184  -47.7979   68.7648 H   0  0  0  0  0
   43.2864  -47.7201   66.4859 H   0  0  0  0  0
   44.1830  -44.5135   64.2833 C   0  0  0  0  0
   44.3740  -44.4925   62.7784 C   0  0  0  0  0
   43.1243  -44.6335   61.9355 C   0  0  0  0  0
   42.1653  -43.4624   61.8906 C   0  0  0  0  0
   40.7041  -43.8755   61.8687 C   0  0  0  0  0
   40.0592  -44.3050   63.1869 C   0  0  0  0  0
   38.7946  -44.8785   62.9150 O   0  0  0  0  0
   38.9350  -45.6633   62.3589 H   0  0  0  0  0
   40.8754  -45.3053   63.9710 C   0  0  0  0  0
   40.6746  -46.5115   64.0006 O   0  0  0  0  0
   39.8856  -43.4150   63.7999 H   0  0  0  0  0
   40.0656  -43.8503   60.8159 O   0  0  0  0  0
   42.3249  -42.7943   62.7430 H   0  0  0  0  0
   42.3845  -42.8830   60.9862 H   0  0  0  0  0
   42.9080  -45.6670   61.2997 O   0  0  0  0  0
   44.8622  -43.5536   62.4953 H   0  0  0  0  0
   45.0574  -45.3111   62.5231 H   0  0  0  0  0
   44.9435  -43.8672   65.0079 O   0  0  0  0  0
   43.1106  -46.3723   64.3615 H   0  0  0  0  0
  1  2  1  0  0  0
  1 61  1  0  0  0
  2  3  1  0  0  0
  2 53  1  0  0  0
  2 71  1  0  0  0
  3  4  2  0  0  0
  3  5  1  0  0  0
  5  6  1  0  0  0
  5 11  1  0  0  0
  5 52  1  0  0  0
  6  7  1  0  0  0
  7  8  1  0  0  0
  7  9  1  0  0  0
  7 10  1  0  0  0
 11 12  1  0  0  0
 11 14  1  0  0  0
 11 51  1  0  0  0
 12 13  1  0  0  0
 14 15  1  0  0  0
 14 43  1  0  0  0
 14 50  1  0  0  0
 15 16  2  0  0  0
 15 17  1  0  0  0
 17 18  1  0  0  0
 17 21  1  0  0  0
 17 42  1  0  0  0
 18 19  1  0  0  0
 18 20  1  0  0  0
 21 22  2  0  0  0
 21 23  1  0  0  0
 23 24  1  0  0  0
 23 34  1  0  0  0
 23 41  1  0  0  0
 24 25  2  0  0  0
 24 26  1  0  0  0
 26 27  1  0  0  0
 26 29  1  0  0  0
 26 33  1  0  0  0
 27 28  1  0  0  0
 29 30  1  0  0  0
 29 32  2  0  0  0
 30 31  1  0  0  0
 34 35  1  0  0  0
 34 39  1  0  0  0
 34 40  1  0  0  0
 35 36  1  0  0  0
 35 37  1  0  0  0
 35 38  1  0  0  0
 43 44  1  0  0  0
 43 48  1  0  0  0
 43 49  1  0  0  0
 44 45  1  0  0  0
 44 46  1  0  0  0
 44 47  1  0  0  0
 53 54  1  0  0  0
 53 70  2  0  0  0
 54 55  1  0  0  0
 54 68  1  0  0  0
 54 69  1  0  0  0
 55 56  1  0  0  0
 55 67  2  0  0  0
 56 57  1  0  0  0
 56 65  1  0  0  0
 56 66  1  0  0  0
 57 58  1  0  0  0
 57 64  2  0  0  0
 58 59  1  0  0  0
 58 61  1  0  0  0
 58 63  1  0  0  0
 59 60  1  0  0  0
 61 62  2  0  0  0
M  END
> <# Confs.>
25

> <Pharmacophore Match>
(1YET) [A] GDM275

> <Matching Features>
||||HBA:495067246627921590|HBA:495067385280122077|HBA:495067408768422079|HBA:495067414144822081

> <Relative Pharmacophore-Fit Score>
0.51

> <Score>
0.5072285

> <Source Database>
conformers.ldb

> <Active/Decoy>
unknown

> <Mol. Index>
122

$$$$
142
XX    ILIB11302300363D

 51 51  0  0  1  0              1 V2000
   39.5033  -50.2126   67.9843 C   0  0  0  0  0
   39.0309  -51.1704   67.1465 O   0  0  0  0  0
   38.1444  -51.4892   67.4165 H   0  0  0  0  0
   38.8966  -49.8147   68.9682 O   0  0  0  0  0
   40.8545  -49.7551   67.5489 C   0  0  0  0  0
   41.5658  -50.7919   66.9074 O   0  0  0  0  0
   41.0419  -51.0855   66.1423 H   0  0  0  0  0
   40.8446  -48.5471   66.6522 C   0  0  0  0  0
   41.3306  -48.5982   65.5133 O   0  0  0  0  0
   40.2664  -47.2618   67.1811 C   0  0  0  0  0
   38.8994  -47.3002   66.8271 O   0  0  0  0  0
   38.0756  -46.6063   67.7642 C   0  0  0  0  0
   38.3261  -45.5415   67.7810 H   0  0  0  0  0
   38.1788  -47.0330   68.7667 H   0  0  0  0  0
   37.0349  -46.7117   67.4469 H   0  0  0  0  0
   40.9121  -45.9818   66.6092 C   0  0  0  0  0
   40.7136  -46.0070   65.1674 O   0  0  0  0  0
   39.6477  -45.3371   64.6456 C   0  0  0  0  0
   39.6724  -45.4371   63.1405 C   0  0  0  0  0
   38.5257  -46.1748   62.7633 O   0  0  0  0  0
   37.7391  -45.6657   63.0242 H   0  0  0  0  0
   39.6763  -44.0940   62.4244 C   0  0  0  0  0
   40.6620  -43.0422   62.8995 C   0  0  0  0  0
   42.1131  -43.4531   62.8343 C   0  0  0  0  0
   43.0717  -42.6886   63.7335 C   0  0  0  0  0
   43.5417  -41.6029   62.9374 O   0  0  0  0  0
   44.1058  -41.9651   62.2343 H   0  0  0  0  0
   44.2551  -43.5239   64.2318 C   0  0  0  0  0
   45.0505  -42.7047   65.0908 O   0  0  0  0  0
   45.8223  -43.2284   65.3644 H   0  0  0  0  0
   43.8768  -44.8121   64.9717 C   0  0  0  0  0
   43.0056  -44.6338   66.2117 C   0  0  0  0  0
   42.4396  -45.9190   66.8214 C   0  0  0  0  0
   42.8322  -45.9206   68.2268 N   0  0  0  0  0
   43.8445  -45.8321   68.3074 H   0  0  0  0  0
   42.4288  -45.1159   68.7049 H   0  0  0  0  0
   42.9165  -46.7716   66.3238 H   0  0  0  0  0
   42.7837  -43.5340   66.7160 O   0  0  0  0  0
   43.3571  -45.4921   64.2894 H   0  0  0  0  0
   44.7912  -45.3119   65.3135 H   0  0  0  0  0
   44.8954  -43.7868   63.3820 H   0  0  0  0  0
   42.5259  -42.2497   64.5720 H   0  0  0  0  0
   42.5115  -44.3053   62.0413 O   0  0  0  0  0
   40.5389  -42.1449   62.2840 H   0  0  0  0  0
   40.3932  -42.7802   63.9273 H   0  0  0  0  0
   38.9141  -43.8598   61.4846 O   0  0  0  0  0
   40.5491  -46.0007   62.8082 H   0  0  0  0  0
   38.7887  -44.7351   65.2760 O   0  0  0  0  0
   40.4382  -45.0835   67.0268 H   0  0  0  0  0
   40.3893  -47.2757   68.2717 H   0  0  0  0  0
   41.4238  -49.4831   68.4580 H   0  0  0  0  0
  1  2  1  0  0  0
  1  4  2  0  0  0
  1  5  1  0  0  0
  2  3  1  0  0  0
  5  6  1  0  0  0
  5  8  1  0  0  0
  5 51  1  0  0  0
  6  7  1  0  0  0
  8  9  2  0  0  0
  8 10  1  0  0  0
 10 11  1  0  0  0
 10 16  1  0  0  0
 10 50  1  0  0  0
 11 12  1  0  0  0
 12 13  1  0  0  0
 12 14  1  0  0  0
 12 15  1  0  0  0
 16 17  1  0  0  0
 16 33  1  0  0  0
 16 49  1  0  0  0
 17 18  1  0  0  0
 18 19  1  0  0  0
 18 48  2  0  0  0
 19 20  1  0  0  0
 19 22  1  0  0  0
 19 47  1  0  0  0
 20 21  1  0  0  0
 22 23  1  0  0  0
 22 46  2  0  0  0
 23 24  1  0  0  0
 23 44  1  0  0  0
 23 45  1  0  0  0
 24 25  1  0  0  0
 24 43  2  0  0  0
 25 26  1  0  0  0
 25 28  1  0  0  0
 25 42  1  0  0  0
 26 27  1  0  0  0
 28 29  1  0  0  0
 28 31  1  0  0  0
 28 41  1  0  0  0
 29 30  1  0  0  0
 31 32  1  0  0  0
 31 39  1  0  0  0
 31 40  1  0  0  0
 32 33  1  0  0  0
 32 38  2  0  0  0
 33 34  1  0  0  0
 33 37  1  0  0  0
 34 35  1  0  0  0
 34 36  1  0  0  0
M  END
> <# Confs.>
25

> <Pharmacophore Match>
(1YET) [A] GDM275

> <Matching Features>
||||HBA:495067246627921590|HBA:495067385280122077|HBA:495067408768422079|HBA:495067414144822081

> <Relative Pharmacophore-Fit Score>
0.50

> <Score>
0.50206965

> <Source Database>
conformers.ldb

> <Active/Decoy>
unknown

> <Mol. Index>
148

$$$$
153
XX    ILIB11302300363D

 65 64  0  0  1  0              1 V2000
   37.9392  -44.9348   60.9492 C   0  0  0  0  0
   36.6386  -44.9928   60.5655 O   0  0  0  0  0
   36.4675  -44.4441   59.7720 H   0  0  0  0  0
   38.7908  -44.2831   60.3618 O   0  0  0  0  0
   38.1812  -45.8055   62.1509 C   0  0  0  0  0
   39.5504  -45.7075   62.5042 O   0  0  0  0  0
   40.0622  -46.1936   61.8351 H   0  0  0  0  0
   37.3837  -45.4216   63.3704 C   0  0  0  0  0
   37.5637  -46.2446   64.6312 C   0  0  0  0  0
   36.7189  -45.7329   65.7037 N   0  0  0  0  0
   36.9130  -44.7458   65.8605 H   0  0  0  0  0
   35.7347  -45.8011   65.4522 H   0  0  0  0  0
   37.2588  -47.7210   64.4703 C   0  0  0  0  0
   38.0116  -48.7043   65.3444 C   0  0  0  0  0
   39.3024  -49.2111   64.7547 C   0  0  0  0  0
   40.1210  -50.2065   65.5669 C   0  0  0  0  0
   41.2776  -50.5356   64.8246 O   0  0  0  0  0
   40.9998  -51.1057   64.0876 H   0  0  0  0  0
   40.5864  -49.6839   66.9042 C   0  0  0  0  0
   39.6921  -49.8911   68.1010 C   0  0  0  0  0
   38.5389  -50.5759   67.6713 O   0  0  0  0  0
   37.9677  -51.3979   68.6759 C   0  0  0  0  0
   38.6659  -52.1873   68.9692 H   0  0  0  0  0
   37.6841  -50.8025   69.5491 H   0  0  0  0  0
   37.0677  -51.8650   68.2678 H   0  0  0  0  0
   39.3306  -48.5726   68.7886 C   0  0  0  0  0
   40.4583  -47.7200   69.3366 C   0  0  0  0  0
   40.6738  -48.1472   70.7155 N   0  0  0  0  0
   41.4673  -47.6397   71.1076 H   0  0  0  0  0
   40.9440  -49.1303   70.7323 H   0  0  0  0  0
   40.0839  -46.2715   69.2522 C   0  0  0  0  0
   40.7160  -45.2867   68.5805 C   0  0  0  0  0
   41.9586  -45.4759   67.7529 C   0  0  0  0  0
   42.7603  -44.2965   67.7414 O   0  0  0  0  0
   42.3202  -43.6421   67.1726 H   0  0  0  0  0
   41.6393  -45.9048   66.3286 C   0  0  0  0  0
   42.9042  -46.0873   65.5204 C   0  0  0  0  0
   42.8420  -45.8285   64.0271 C   0  0  0  0  0
   43.1416  -44.4084   63.6230 C   0  0  0  0  0
   43.0634  -44.2645   62.2751 O   0  0  0  0  0
   43.2747  -43.3485   61.9909 H   0  0  0  0  0
   43.4495  -43.5031   64.3840 O   0  0  0  0  0
   41.8423  -46.0824   63.6595 H   0  0  0  0  0
   43.5640  -46.4881   63.5367 H   0  0  0  0  0
   43.9396  -46.4723   66.0674 O   0  0  0  0  0
   41.0951  -46.8567   66.3185 H   0  0  0  0  0
   41.0194  -45.1601   65.8159 H   0  0  0  0  0
   42.5595  -46.2581   68.2326 H   0  0  0  0  0
   40.1608  -43.8822   68.6304 C   0  0  0  0  0
   39.9165  -43.5279   67.6245 H   0  0  0  0  0
   40.8907  -43.1977   69.0746 H   0  0  0  0  0
   39.2460  -43.8174   69.2295 H   0  0  0  0  0
   39.1816  -46.0005   69.8023 H   0  0  0  0  0
   41.3589  -47.9159   68.7416 H   0  0  0  0  0
   38.1500  -48.2422   68.9154 O   0  0  0  0  0
   40.2370  -50.5141   68.8209 H   0  0  0  0  0
   41.6561  -49.0639   66.9955 O   0  0  0  0  0
   39.5441  -51.1181   65.7238 H   0  0  0  0  0
   39.6898  -48.7974   63.6598 O   0  0  0  0  0
   37.3701  -49.5677   65.5503 H   0  0  0  0  0
   38.2367  -48.2116   66.2954 H   0  0  0  0  0
   36.4461  -48.0986   63.6235 O   0  0  0  0  0
   38.6113  -46.1456   64.9377 H   0  0  0  0  0
   36.5831  -44.4835   63.3186 O   0  0  0  0  0
   37.9744  -46.8517   61.9039 H   0  0  0  0  0
  1  2  1  0  0  0
  1  4  2  0  0  0
  1  5  1  0  0  0
  2  3  1  0  0  0
  5  6  1  0  0  0
  5  8  1  0  0  0
  5 65  1  0  0  0
  6  7  1  0  0  0
  8  9  1  0  0  0
  8 64  2  0  0  0
  9 10  1  0  0  0
  9 13  1  0  0  0
  9 63  1  0  0  0
 10 11  1  0  0  0
 10 12  1  0  0  0
 13 14  1  0  0  0
 13 62  2  0  0  0
 14 15  1  0  0  0
 14 60  1  0  0  0
 14 61  1  0  0  0
 15 16  1  0  0  0
 15 59  2  0  0  0
 16 17  1  0  0  0
 16 19  1  0  0  0
 16 58  1  0  0  0
 17 18  1  0  0  0
 19 20  1  0  0  0
 19 57  2  0  0  0
 20 21  1  0  0  0
 20 26  1  0  0  0
 20 56  1  0  0  0
 21 22  1  0  0  0
 22 23  1  0  0  0
 22 24  1  0  0  0
 22 25  1  0  0  0
 26 27  1  0  0  0
 26 55  2  0  0  0
 27 28  1  0  0  0
 27 31  1  0  0  0
 27 54  1  0  0  0
 28 29  1  0  0  0
 28 30  1  0  0  0
 31 32  2  0  0  0
 31 53  1  0  0  0
 32 33  1  0  0  0
 32 49  1  0  0  0
 33 34  1  0  0  0
 33 36  1  0  0  0
 33 48  1  0  0  0
 34 35  1  0  0  0
 36 37  1  0  0  0
 36 46  1  0  0  0
 36 47  1  0  0  0
 37 38  1  0  0  0
 37 45  2  0  0  0
 38 39  1  0  0  0
 38 43  1  0  0  0
 38 44  1  0  0  0
 39 40  1  0  0  0
 39 42  2  0  0  0
 40 41  1  0  0  0
 49 50  1  0  0  0
 49 51  1  0  0  0
 49 52  1  0  0  0
M  END
> <# Confs.>
25

> <Pharmacophore Match>
(1YET) [A] GDM275

> <Matching Features>
||||HBA:495067246627921590|HBA:495067385280122077|HBA:495067408768422079|HBA:495067414144822081

> <Relative Pharmacophore-Fit Score>
0.50

> <Score>
0.49941364

> <Source Database>
conformers.ldb

> <Active/Decoy>
unknown

> <Mol. Index>
147

$$$$
137
XX    ILIB11302300363D

 64 64  0  0  1  0              1 V2000
   39.9144  -45.1113   63.7126 C   0  0  0  0  0
   39.0457  -44.9294   64.9514 C   0  0  0  0  0
   38.9237  -46.1325   65.8673 C   0  0  0  0  0
   37.8680  -47.1167   65.3473 C   0  0  0  0  0
   36.7088  -47.0622   66.1769 O   0  0  0  0  0
   36.3875  -46.1442   66.1700 H   0  0  0  0  0
   38.3587  -48.5670   65.2684 C   0  0  0  0  0
   39.3687  -48.6508   64.2760 O   0  0  0  0  0
   38.9337  -48.5791   63.4097 H   0  0  0  0  0
   38.9179  -49.1270   66.5701 C   0  0  0  0  0
   39.6385  -50.4583   66.5233 C   0  0  0  0  0
   38.8409  -51.3130   67.3127 O   0  0  0  0  0
   38.8973  -52.6737   66.8728 C   0  0  0  0  0
   38.2504  -53.2679   67.5233 H   0  0  0  0  0
   39.9157  -53.0655   66.9453 H   0  0  0  0  0
   38.5315  -52.7627   65.8457 H   0  0  0  0  0
   41.0699  -50.3733   67.0600 C   0  0  0  0  0
   42.0663  -49.5199   66.2667 C   0  0  0  0  0
   42.4752  -50.3481   65.1374 N   0  0  0  0  0
   43.0307  -49.7949   64.4862 H   0  0  0  0  0
   43.0853  -51.0982   65.4599 H   0  0  0  0  0
   43.2536  -49.0641   67.1380 C   0  0  0  0  0
   42.7410  -48.2244   68.1785 O   0  0  0  0  0
   43.4958  -47.9374   68.7179 H   0  0  0  0  0
   44.3570  -48.3104   66.3676 C   0  0  0  0  0
   45.3851  -47.8683   67.2394 O   0  0  0  0  0
   46.4238  -48.8275   67.3901 C   0  0  0  0  0
   47.1682  -48.4195   68.0780 H   0  0  0  0  0
   46.9111  -49.0290   66.4322 H   0  0  0  0  0
   46.0294  -49.7547   67.8148 H   0  0  0  0  0
   43.8912  -47.0241   65.6947 C   0  0  0  0  0
   44.5997  -46.6505   64.4067 C   0  0  0  0  0
   44.3921  -45.2113   63.9893 C   0  0  0  0  0
   43.2517  -45.0403   63.2071 N   0  0  0  0  0
   42.7984  -43.8166   62.7268 C   0  0  0  0  0
   41.4396  -43.8614   62.0243 C   0  0  0  0  0
   40.2815  -43.7832   63.0434 C   0  0  0  0  0
   39.1143  -43.3085   62.3640 O   0  0  0  0  0
   39.3170  -42.4247   62.0145 H   0  0  0  0  0
   40.5273  -43.0410   63.8128 H   0  0  0  0  0
   41.3074  -44.9909   61.0027 C   0  0  0  0  0
   41.2571  -45.9797   61.4693 H   0  0  0  0  0
   42.1629  -44.9968   60.3215 H   0  0  0  0  0
   40.4002  -44.8630   60.4024 H   0  0  0  0  0
   41.4096  -42.9380   61.4267 H   0  0  0  0  0
   43.3870  -42.7467   62.8780 O   0  0  0  0  0
   42.7026  -45.8697   63.0036 H   0  0  0  0  0
   45.1531  -44.3192   64.3560 O   0  0  0  0  0
   44.2600  -47.3278   63.6163 H   0  0  0  0  0
   45.6766  -46.8011   64.5395 H   0  0  0  0  0
   43.0025  -46.3175   66.1690 O   0  0  0  0  0
   44.7898  -48.9574   65.5948 H   0  0  0  0  0
   43.7001  -49.9297   67.6423 H   0  0  0  0  0
   41.5263  -48.6381   65.9098 H   0  0  0  0  0
   41.4028  -50.9873   68.0741 O   0  0  0  0  0
   39.6709  -50.8277   65.4794 H   0  0  0  0  0
   38.7568  -48.5559   67.6569 O   0  0  0  0  0
   37.5306  -49.2283   64.9873 H   0  0  0  0  0
   37.5436  -46.8206   64.3420 H   0  0  0  0  0
   39.9200  -46.5846   65.9343 H   0  0  0  0  0
   38.6753  -45.7662   66.8698 H   0  0  0  0  0
   38.4318  -43.8906   65.1906 O   0  0  0  0  0
   39.3621  -45.7583   63.0228 H   0  0  0  0  0
   40.8173  -45.6287   64.0437 H   0  0  0  0  0
  1  2  1  0  0  0
  1 37  1  0  0  0
  1 63  1  0  0  0
  1 64  1  0  0  0
  2  3  1  0  0  0
  2 62  2  0  0  0
  3  4  1  0  0  0
  3 60  1  0  0  0
  3 61  1  0  0  0
  4  5  1  0  0  0
  4  7  1  0  0  0
  4 59  1  0  0  0
  5  6  1  0  0  0
  7  8  1  0  0  0
  7 10  1  0  0  0
  7 58  1  0  0  0
  8  9  1  0  0  0
 10 11  1  0  0  0
 10 57  2  0  0  0
 11 12  1  0  0  0
 11 17  1  0  0  0
 11 56  1  0  0  0
 12 13  1  0  0  0
 13 14  1  0  0  0
 13 15  1  0  0  0
 13 16  1  0  0  0
 17 18  1  0  0  0
 17 55  2  0  0  0
 18 19  1  0  0  0
 18 22  1  0  0  0
 18 54  1  0  0  0
 19 20  1  0  0  0
 19 21  1  0  0  0
 22 23  1  0  0  0
 22 25  1  0  0  0
 22 53  1  0  0  0
 23 24  1  0  0  0
 25 26  1  0  0  0
 25 31  1  0  0  0
 25 52  1  0  0  0
 26 27  1  0  0  0
 27 28  1  0  0  0
 27 29  1  0  0  0
 27 30  1  0  0  0
 31 32  1  0  0  0
 31 51  2  0  0  0
 32 33  1  0  0  0
 32 49  1  0  0  0
 32 50  1  0  0  0
 33 34  1  0  0  0
 33 48  2  0  0  0
 34 35  1  0  0  0
 34 47  1  0  0  0
 35 36  1  0  0  0
 35 46  2  0  0  0
 36 37  1  0  0  0
 36 41  1  0  0  0
 36 45  1  0  0  0
 37 38  1  0  0  0
 37 40  1  0  0  0
 38 39  1  0  0  0
 41 42  1  0  0  0
 41 43  1  0  0  0
 41 44  1  0  0  0
M  END
> <# Confs.>
25

> <Pharmacophore Match>
(1YET) [A] GDM275

> <Matching Features>
||||HBA:495067246627921590|HBA:495067385280122077|HBA:495067408768422079|HBA:495067414144822081

> <Relative Pharmacophore-Fit Score>
0.51

> <Score>
0.50720656

> <Source Database>
conformers.ldb

> <Active/Decoy>
unknown

> <Mol. Index>
143

$$$$
127
XX    ILIB11302300363D

 50 50  0  0  1  0              1 V2000
   42.2999  -45.3165   66.2734 N   0  0  0  0  0
   41.4015  -45.8219   67.1887 C   0  0  0  0  0
   40.3455  -44.9471   67.7755 C   0  0  0  0  0
   39.2974  -44.3270   66.8318 C   0  0  0  0  0
   38.2386  -43.7777   67.5993 O   0  0  0  0  0
   38.4647  -42.4178   67.9460 C   0  0  0  0  0
   38.5280  -41.7926   67.0511 H   0  0  0  0  0
   39.3795  -42.3209   68.5389 H   0  0  0  0  0
   37.6208  -42.0738   68.5494 H   0  0  0  0  0
   38.7053  -45.3423   65.8356 C   0  0  0  0  0
   38.0360  -46.3803   66.5549 O   0  0  0  0  0
   37.3515  -45.9645   67.1060 H   0  0  0  0  0
   37.6952  -44.7232   64.8688 C   0  0  0  0  0
   38.2928  -43.6824   63.9411 C   0  0  0  0  0
   39.1165  -44.1696   62.7618 C   0  0  0  0  0
   38.9693  -43.2653   61.6850 O   0  0  0  0  0
   39.2280  -42.3794   61.9906 H   0  0  0  0  0
   40.5973  -44.3591   63.0472 C   0  0  0  0  0
   41.4063  -43.1246   63.4321 C   0  0  0  0  0
   42.8564  -43.4571   63.6570 C   0  0  0  0  0
   43.4332  -43.8306   64.8184 C   0  0  0  0  0
   42.5506  -43.9802   66.0056 C   0  0  0  0  0
   42.1590  -42.9965   66.6220 O   0  0  0  0  0
   44.7578  -44.1518   65.0334 O   0  0  0  0  0
   45.5880  -44.0715   63.8788 C   0  0  0  0  0
   46.6240  -44.2189   64.1985 H   0  0  0  0  0
   45.5176  -43.0852   63.4082 H   0  0  0  0  0
   45.3393  -44.8634   63.1649 H   0  0  0  0  0
   43.4674  -43.3713   62.7605 H   0  0  0  0  0
   40.9578  -42.6619   64.3133 H   0  0  0  0  0
   41.3475  -42.3969   62.6162 H   0  0  0  0  0
   41.1002  -45.4813   62.9705 O   0  0  0  0  0
   38.7016  -45.1259   62.4229 H   0  0  0  0  0
   38.1071  -42.4811   64.1455 O   0  0  0  0  0
   37.2299  -45.5045   64.2556 H   0  0  0  0  0
   36.8617  -44.2653   65.4143 H   0  0  0  0  0
   39.5011  -45.8224   65.2608 H   0  0  0  0  0
   39.7773  -43.5218   66.2684 H   0  0  0  0  0
   40.3498  -44.7336   68.9876 O   0  0  0  0  0
   41.4009  -47.1269   67.5114 C   0  0  0  0  0
   40.4643  -47.8426   68.4192 C   0  0  0  0  0
   39.2049  -47.2210   68.4143 O   0  0  0  0  0
   38.9061  -47.1407   67.4917 H   0  0  0  0  0
   40.3153  -49.2740   67.9616 C   0  0  0  0  0
   41.2486  -50.0743   68.5347 O   0  0  0  0  0
   41.1547  -51.0091   68.2508 H   0  0  0  0  0
   39.4513  -49.6796   67.1978 O   0  0  0  0  0
   40.8248  -47.8535   69.4605 H   0  0  0  0  0
   42.1641  -47.7594   67.0312 H   0  0  0  0  0
   42.8543  -46.0073   65.7712 H   0  0  0  0  0
  1  2  1  0  0  0
  1 22  1  0  0  0
  1 50  1  0  0  0
  2  3  1  0  0  0
  2 40  2  0  0  0
  3  4  1  0  0  0
  3 39  2  0  0  0
  4  5  1  0  0  0
  4 10  1  0  0  0
  4 38  1  0  0  0
  5  6  1  0  0  0
  6  7  1  0  0  0
  6  8  1  0  0  0
  6  9  1  0  0  0
 10 11  1  0  0  0
 10 13  1  0  0  0
 10 37  1  0  0  0
 11 12  1  0  0  0
 13 14  1  0  0  0
 13 35  1  0  0  0
 13 36  1  0  0  0
 14 15  1  0  0  0
 14 34  2  0  0  0
 15 16  1  0  0  0
 15 18  1  0  0  0
 15 33  1  0  0  0
 16 17  1  0  0  0
 18 19  1  0  0  0
 18 32  2  0  0  0
 19 20  1  0  0  0
 19 30  1  0  0  0
 19 31  1  0  0  0
 20 21  2  0  0  0
 20 29  1  0  0  0
 21 22  1  0  0  0
 21 24  1  0  0  0
 22 23  2  0  0  0
 24 25  1  0  0  0
 25 26  1  0  0  0
 25 27  1  0  0  0
 25 28  1  0  0  0
 40 41  1  0  0  0
 40 49  1  0  0  0
 41 42  1  0  0  0
 41 44  1  0  0  0
 41 48  1  0  0  0
 42 43  1  0  0  0
 44 45  1  0  0  0
 44 47  2  0  0  0
 45 46  1  0  0  0
M  END
> <# Confs.>
25

> <Pharmacophore Match>
(1YET) [A] GDM275

> <Matching Features>
||||HBA:495067246627921590|HBA:495067385280122077|HBA:495067408768422079|HBA:495067414144822081

> <Relative Pharmacophore-Fit Score>
0.50

> <Score>
0.5042071

> <Source Database>
conformers.ldb

> <Active/Decoy>
unknown

> <Mol. Index>
130

$$$$
152
XX    ILIB11302300363D

 37 37  0  0  1  0              1 V2000
   39.4639  -43.9108   63.7983 C   0  0  0  0  0
   40.3679  -43.3252   62.7396 C   0  0  0  0  0
   41.8581  -43.3106   62.9957 C   0  0  0  0  0
   42.1732  -42.0156   63.5838 N   0  0  0  0  0
   43.1814  -41.9390   63.7220 H   0  0  0  0  0
   41.9265  -41.2741   62.9307 H   0  0  0  0  0
   42.3400  -44.3922   63.9438 C   0  0  0  0  0
   41.4059  -45.5909   64.1083 C   0  0  0  0  0
   40.0403  -45.0770   64.5626 C   0  0  0  0  0
   39.4005  -45.5915   65.4796 O   0  0  0  0  0
   41.9520  -46.6538   65.0627 C   0  0  0  0  0
   42.1734  -46.1112   66.3550 O   0  0  0  0  0
   41.3128  -45.8536   66.7255 H   0  0  0  0  0
   41.1129  -47.9252   65.1293 C   0  0  0  0  0
   41.0362  -48.4982   63.8189 O   0  0  0  0  0
   39.8225  -49.2039   63.5975 C   0  0  0  0  0
   39.7028  -50.0113   64.3260 H   0  0  0  0  0
   39.8556  -49.6400   62.5955 H   0  0  0  0  0
   38.9695  -48.5202   63.6499 H   0  0  0  0  0
   41.6537  -48.9246   66.1219 C   0  0  0  0  0
   41.1704  -48.8114   67.5438 C   0  0  0  0  0
   41.7887  -49.8056   68.3331 O   0  0  0  0  0
   41.7112  -49.5359   69.2594 H   0  0  0  0  0
   39.6717  -48.9772   67.6830 C   0  0  0  0  0
   39.3124  -50.2728   67.8724 O   0  0  0  0  0
   40.0608  -50.9064   67.8797 H   0  0  0  0  0
   38.8663  -48.0558   67.6668 O   0  0  0  0  0
   41.4478  -47.8329   67.9243 H   0  0  0  0  0
   42.4966  -49.7694   65.7901 O   0  0  0  0  0
   40.0986  -47.6564   65.4526 H   0  0  0  0  0
   42.9591  -46.9304   64.6867 H   0  0  0  0  0
   41.2576  -46.0427   63.1189 H   0  0  0  0  0
   43.4342  -44.3191   64.5013 O   0  0  0  0  0
   42.3749  -43.4531   62.0409 H   0  0  0  0  0
   39.8916  -42.7735   61.7442 O   0  0  0  0  0
   38.5485  -44.2577   63.3075 H   0  0  0  0  0
   39.2238  -43.1157   64.5113 H   0  0  0  0  0
  1  2  1  0  0  0
  1  9  1  0  0  0
  1 36  1  0  0  0
  1 37  1  0  0  0
  2  3  1  0  0  0
  2 35  2  0  0  0
  3  4  1  0  0  0
  3  7  1  0  0  0
  3 34  1  0  0  0
  4  5  1  0  0  0
  4  6  1  0  0  0
  7  8  1  0  0  0
  7 33  2  0  0  0
  8  9  1  0  0  0
  8 11  1  0  0  0
  8 32  1  0  0  0
  9 10  2  0  0  0
 11 12  1  0  0  0
 11 14  1  0  0  0
 11 31  1  0  0  0
 12 13  1  0  0  0
 14 15  1  0  0  0
 14 20  1  0  0  0
 14 30  1  0  0  0
 15 16  1  0  0  0
 16 17  1  0  0  0
 16 18  1  0  0  0
 16 19  1  0  0  0
 20 21  1  0  0  0
 20 29  2  0  0  0
 21 22  1  0  0  0
 21 24  1  0  0  0
 21 28  1  0  0  0
 22 23  1  0  0  0
 24 25  1  0  0  0
 24 27  2  0  0  0
 25 26  1  0  0  0
M  END
> <# Confs.>
25

> <Pharmacophore Match>
(1YET) [A] GDM275

> <Matching Features>
||||HBA:495067246627921590|HBA:495067385280122077|HBA:495067408768422079|HBA:495067414144822081

> <Relative Pharmacophore-Fit Score>
0.50

> <Score>
0.5044069

> <Source Database>
conformers.ldb

> <Active/Decoy>
unknown

> <Mol. Index>
150

$$$$
151
XX    ILIB11302300363D

 62 62  0  0  1  0              1 V2000
   43.1205  -42.6321   64.1194 C   0  0  0  0  0
   43.8361  -42.7372   62.9694 O   0  0  0  0  0
   43.3396  -42.5290   62.1495 H   0  0  0  0  0
   43.5955  -42.8706   65.2222 O   0  0  0  0  0
   41.6958  -42.1976   63.8701 C   0  0  0  0  0
   41.7329  -40.9350   63.2372 O   0  0  0  0  0
   41.9427  -40.2725   63.9167 H   0  0  0  0  0
   40.8988  -43.1532   62.9934 C   0  0  0  0  0
   40.4082  -42.7566   61.9391 O   0  0  0  0  0
   40.6965  -44.5827   63.4348 C   0  0  0  0  0
   42.0026  -45.1258   63.5455 O   0  0  0  0  0
   42.4412  -45.7089   62.3167 C   0  0  0  0  0
   42.5244  -44.9423   61.5404 H   0  0  0  0  0
   41.7574  -46.4994   61.9936 H   0  0  0  0  0
   43.4292  -46.1476   62.4806 H   0  0  0  0  0
   39.9188  -44.6942   64.7650 C   0  0  0  0  0
   38.6298  -44.0967   64.6224 O   0  0  0  0  0
   38.1111  -44.6382   64.0039 H   0  0  0  0  0
   39.7740  -46.0951   65.3677 C   0  0  0  0  0
   41.0663  -46.6978   65.6565 N   0  0  0  0  0
   41.7486  -46.4803   66.8436 C   0  0  0  0  0
   43.0510  -47.2655   66.9265 C   0  0  0  0  0
   43.1963  -48.0637   68.2252 C   0  0  0  0  0
   41.9843  -48.8558   68.7064 C   0  0  0  0  0
   42.3502  -49.7083   69.7754 O   0  0  0  0  0
   43.0187  -50.3329   69.4452 H   0  0  0  0  0
   41.3413  -49.7358   67.6514 C   0  0  0  0  0
   39.8512  -49.7386   67.5798 C   0  0  0  0  0
   39.1158  -49.7019   68.7429 O   0  0  0  0  0
   39.7287  -49.8103   69.4873 H   0  0  0  0  0
   39.2830  -49.6972   66.3650 C   0  0  0  0  0
   37.7995  -49.6315   66.1089 C   0  0  0  0  0
   37.3946  -48.1574   66.0491 C   0  0  0  0  0
   37.5933  -47.3692   64.7710 C   0  0  0  0  0
   39.0363  -47.0631   64.4436 C   0  0  0  0  0
   39.5803  -47.5797   63.4665 O   0  0  0  0  0
   37.0518  -46.4193   64.8548 H   0  0  0  0  0
   37.1294  -47.8998   63.9344 H   0  0  0  0  0
   36.9676  -47.5902   67.0597 O   0  0  0  0  0
   37.3750  -50.4213   64.8754 C   0  0  0  0  0
   37.7158  -51.9013   64.9811 C   0  0  0  0  0
   37.2478  -52.3501   65.8631 H   0  0  0  0  0
   38.7966  -52.0598   65.0452 H   0  0  0  0  0
   37.3524  -52.4328   64.0966 H   0  0  0  0  0
   37.8462  -50.0073   63.9752 H   0  0  0  0  0
   36.2924  -50.3182   64.7300 H   0  0  0  0  0
   37.2574  -50.0553   66.9644 H   0  0  0  0  0
   39.9207  -49.6902   65.4833 H   0  0  0  0  0
   42.0126  -50.4139   66.8755 O   0  0  0  0  0
   41.2618  -48.1322   69.0935 H   0  0  0  0  0
   44.2571  -48.0869   68.8529 O   0  0  0  0  0
   44.2071  -46.2854   66.7360 C   0  0  0  0  0
   45.1664  -46.8128   66.6997 H   0  0  0  0  0
   44.2553  -45.5630   67.5583 H   0  0  0  0  0
   44.0956  -45.7221   65.8032 H   0  0  0  0  0
   43.0980  -47.9987   66.1128 H   0  0  0  0  0
   41.3714  -45.7424   67.7514 O   0  0  0  0  0
   41.4813  -47.2950   64.9475 H   0  0  0  0  0
   39.2180  -46.0270   66.3103 H   0  0  0  0  0
   40.4540  -44.0714   65.4934 H   0  0  0  0  0
   40.1332  -45.0904   62.6412 H   0  0  0  0  0
   41.1702  -42.0858   64.8247 H   0  0  0  0  0
  1  2  1  0  0  0
  1  4  2  0  0  0
  1  5  1  0  0  0
  2  3  1  0  0  0
  5  6  1  0  0  0
  5  8  1  0  0  0
  5 62  1  0  0  0
  6  7  1  0  0  0
  8  9  2  0  0  0
  8 10  1  0  0  0
 10 11  1  0  0  0
 10 16  1  0  0  0
 10 61  1  0  0  0
 11 12  1  0  0  0
 12 13  1  0  0  0
 12 14  1  0  0  0
 12 15  1  0  0  0
 16 17  1  0  0  0
 16 19  1  0  0  0
 16 60  1  0  0  0
 17 18  1  0  0  0
 19 20  1  0  0  0
 19 35  1  0  0  0
 19 59  1  0  0  0
 20 21  1  0  0  0
 20 58  1  0  0  0
 21 22  1  0  0  0
 21 57  2  0  0  0
 22 23  1  0  0  0
 22 52  1  0  0  0
 22 56  1  0  0  0
 23 24  1  0  0  0
 23 51  2  0  0  0
 24 25  1  0  0  0
 24 27  1  0  0  0
 24 50  1  0  0  0
 25 26  1  0  0  0
 27 28  1  0  0  0
 27 49  2  0  0  0
 28 29  1  0  0  0
 28 31  2  0  0  0
 29 30  1  0  0  0
 31 32  1  0  0  0
 31 48  1  0  0  0
 32 33  1  0  0  0
 32 40  1  0  0  0
 32 47  1  0  0  0
 33 34  1  0  0  0
 33 39  2  0  0  0
 34 35  1  0  0  0
 34 37  1  0  0  0
 34 38  1  0  0  0
 35 36  2  0  0  0
 40 41  1  0  0  0
 40 45  1  0  0  0
 40 46  1  0  0  0
 41 42  1  0  0  0
 41 43  1  0  0  0
 41 44  1  0  0  0
 52 53  1  0  0  0
 52 54  1  0  0  0
 52 55  1  0  0  0
M  END
> <# Confs.>
25

> <Pharmacophore Match>
(1YET) [A] GDM275

> <Matching Features>
||||HBA:495067246627921590|HBA:495067385280122077|HBA:495067408768422079|HBA:495067414144822081

> <Relative Pharmacophore-Fit Score>
0.49

> <Score>
0.49111536

> <Source Database>
conformers.ldb

> <Active/Decoy>
unknown

> <Mol. Index>
156

$$$$
143
XX    ILIB11302300363D

 51 51  0  0  1  0              1 V2000
   38.0518  -47.1877   66.5850 C   0  0  0  0  0
   36.9766  -47.7179   67.2514 O   0  0  0  0  0
   36.5620  -47.0616   67.8509 H   0  0  0  0  0
   38.4352  -46.0505   66.7350 O   0  0  0  0  0
   38.6773  -48.2197   65.7024 C   0  0  0  0  0
   39.2677  -47.5811   64.5740 O   0  0  0  0  0
   38.4740  -47.3720   63.4727 C   0  0  0  0  0
   37.3011  -47.7013   63.3537 O   0  0  0  0  0
   39.2734  -46.6590   62.4069 C   0  0  0  0  0
   38.5619  -46.7668   61.1857 O   0  0  0  0  0
   37.7031  -46.3237   61.2977 H   0  0  0  0  0
   39.5006  -45.1830   62.6889 C   0  0  0  0  0
   40.6704  -44.8067   63.5716 C   0  0  0  0  0
   41.9897  -44.6965   62.8330 C   0  0  0  0  0
   42.1173  -45.0814   61.6695 O   0  0  0  0  0
   43.1732  -44.0901   63.5729 C   0  0  0  0  0
   42.8358  -42.7314   63.8239 O   0  0  0  0  0
   42.7747  -42.2811   62.9638 H   0  0  0  0  0
   43.4898  -44.7756   64.9063 C   0  0  0  0  0
   44.6357  -44.1306   65.4721 O   0  0  0  0  0
   44.4245  -43.1855   65.5564 H   0  0  0  0  0
   43.8333  -46.2597   64.7424 C   0  0  0  0  0
   43.7872  -47.0109   66.0721 C   0  0  0  0  0
   43.8769  -46.4146   67.1490 O   0  0  0  0  0
   43.6237  -48.5300   66.0650 C   0  0  0  0  0
   44.6345  -49.0965   65.1737 N   0  0  0  0  0
   44.4420  -48.8314   64.2094 H   0  0  0  0  0
   44.5730  -50.1129   65.1971 H   0  0  0  0  0
   42.1919  -49.0113   65.7436 C   0  0  0  0  0
   41.8652  -48.7710   64.3785 O   0  0  0  0  0
   42.4762  -49.2964   63.8337 H   0  0  0  0  0
   41.1174  -48.3545   66.6320 C   0  0  0  0  0
   41.4635  -48.5559   67.9895 O   0  0  0  0  0
   41.0095  -47.5094   68.8379 C   0  0  0  0  0
   41.4791  -46.5589   68.5695 H   0  0  0  0  0
   39.9198  -47.4183   68.7848 H   0  0  0  0  0
   41.2874  -47.7557   69.8664 H   0  0  0  0  0
   39.7662  -49.0305   66.3911 C   0  0  0  0  0
   39.5431  -50.1737   66.7957 O   0  0  0  0  0
   41.0398  -47.2827   66.4136 H   0  0  0  0  0
   42.1602  -50.0986   65.8933 H   0  0  0  0  0
   43.8801  -48.8671   67.0773 H   0  0  0  0  0
   44.8420  -46.3770   64.3327 H   0  0  0  0  0
   43.1216  -46.7308   64.0644 H   0  0  0  0  0
   42.6664  -44.6376   65.6161 H   0  0  0  0  0
   44.0557  -44.0978   62.9243 H   0  0  0  0  0
   40.4373  -43.8397   64.0299 H   0  0  0  0  0
   40.7673  -45.5383   64.3748 H   0  0  0  0  0
   38.7846  -44.3108   62.1937 O   0  0  0  0  0
   40.2306  -47.1672   62.2594 H   0  0  0  0  0
   37.8978  -48.9340   65.3673 H   0  0  0  0  0
  1  2  1  0  0  0
  1  4  2  0  0  0
  1  5  1  0  0  0
  2  3  1  0  0  0
  5  6  1  0  0  0
  5 38  1  0  0  0
  5 51  1  0  0  0
  6  7  1  0  0  0
  7  8  2  0  0  0
  7  9  1  0  0  0
  9 10  1  0  0  0
  9 12  1  0  0  0
  9 50  1  0  0  0
 10 11  1  0  0  0
 12 13  1  0  0  0
 12 49  2  0  0  0
 13 14  1  0  0  0
 13 47  1  0  0  0
 13 48  1  0  0  0
 14 15  2  0  0  0
 14 16  1  0  0  0
 16 17  1  0  0  0
 16 19  1  0  0  0
 16 46  1  0  0  0
 17 18  1  0  0  0
 19 20  1  0  0  0
 19 22  1  0  0  0
 19 45  1  0  0  0
 20 21  1  0  0  0
 22 23  1  0  0  0
 22 43  1  0  0  0
 22 44  1  0  0  0
 23 24  2  0  0  0
 23 25  1  0  0  0
 25 26  1  0  0  0
 25 29  1  0  0  0
 25 42  1  0  0  0
 26 27  1  0  0  0
 26 28  1  0  0  0
 29 30  1  0  0  0
 29 32  1  0  0  0
 29 41  1  0  0  0
 30 31  1  0  0  0
 32 33  1  0  0  0
 32 38  1  0  0  0
 32 40  1  0  0  0
 33 34  1  0  0  0
 34 35  1  0  0  0
 34 36  1  0  0  0
 34 37  1  0  0  0
 38 39  2  0  0  0
M  END
> <# Confs.>
25

> <Pharmacophore Match>
(1YET) [A] GDM275

> <Matching Features>
||||HBA:495067246627921590|HBA:495067385280122077|HBA:495067408768422079|HBA:495067414144822081

> <Relative Pharmacophore-Fit Score>
0.50

> <Score>
0.49760517

> <Source Database>
conformers.ldb

> <Active/Decoy>
unknown

> <Mol. Index>
146

$$$$
162
XX    ILIB11302300363D

 68 68  0  0  1  0              1 V2000
   38.5848  -48.3016   63.2678 C   0  0  0  0  0
   37.5092  -47.8179   62.6271 O   0  0  0  0  0
   37.3281  -48.2981   61.7911 H   0  0  0  0  0
   39.2703  -49.2389   62.8469 O   0  0  0  0  0
   38.8867  -47.5432   64.5213 C   0  0  0  0  0
   39.4983  -48.4622   65.4443 O   0  0  0  0  0
   38.6629  -49.2124   66.2335 C   0  0  0  0  0
   37.4394  -49.1853   66.2210 O   0  0  0  0  0
   39.4877  -50.1263   67.1092 C   0  0  0  0  0
   38.6400  -50.7646   68.0400 O   0  0  0  0  0
   39.1027  -51.5553   68.3653 H   0  0  0  0  0
   40.5982  -49.4299   67.8673 C   0  0  0  0  0
   41.7782  -49.6698   67.6114 O   0  0  0  0  0
   40.2128  -48.4144   68.9212 C   0  0  0  0  0
   40.7974  -47.0426   68.6757 C   0  0  0  0  0
   42.1899  -46.7620   69.2216 C   0  0  0  0  0
   42.9545  -45.7270   68.3927 C   0  0  0  0  0
   43.1846  -44.5972   68.8259 O   0  0  0  0  0
   43.4005  -46.1405   66.9873 C   0  0  0  0  0
   43.8901  -44.9589   66.1469 C   0  0  0  0  0
   44.9370  -44.3678   66.4182 O   0  0  0  0  0
   43.0142  -44.5298   64.9654 C   0  0  0  0  0
   43.7545  -43.6792   64.1039 O   0  0  0  0  0
   44.4464  -44.3965   63.0906 C   0  0  0  0  0
   44.9970  -43.6775   62.4767 H   0  0  0  0  0
   43.7462  -44.9367   62.4469 H   0  0  0  0  0
   45.1627  -45.0923   63.5355 H   0  0  0  0  0
   41.7782  -43.7667   65.4669 C   0  0  0  0  0
   42.2215  -42.6636   66.2766 O   0  0  0  0  0
   42.8045  -42.1122   65.7285 H   0  0  0  0  0
   40.8883  -43.1784   64.3549 C   0  0  0  0  0
   39.7572  -42.5555   64.9744 O   0  0  0  0  0
   39.2818  -43.2383   65.4767 H   0  0  0  0  0
   40.4270  -44.1314   63.2307 C   0  0  0  0  0
   39.9206  -43.2792   62.1871 O   0  0  0  0  0
   39.7493  -43.8368   61.4094 H   0  0  0  0  0
   39.3436  -45.2034   63.5250 C   0  0  0  0  0
   38.2543  -44.6834   64.2698 O   0  0  0  0  0
   37.2208  -44.1685   63.4398 C   0  0  0  0  0
   36.4271  -43.7811   64.0831 H   0  0  0  0  0
   36.8003  -44.9545   62.8065 H   0  0  0  0  0
   37.5987  -43.3491   62.8223 H   0  0  0  0  0
   39.8991  -46.4126   64.2909 C   0  0  0  0  0
   40.2517  -46.0949   65.2751 H   0  0  0  0  0
   40.7720  -46.8178   63.7644 H   0  0  0  0  0
   38.9590  -45.5656   62.5633 H   0  0  0  0  0
   41.3022  -44.6231   62.7921 H   0  0  0  0  0
   41.4283  -42.3447   63.8875 H   0  0  0  0  0
   41.1847  -44.3882   66.1412 H   0  0  0  0  0
   42.7146  -45.4284   64.4161 H   0  0  0  0  0
   44.4696  -47.2299   67.0098 C   0  0  0  0  0
   44.4002  -48.1290   65.7825 C   0  0  0  0  0
   45.1589  -48.9155   65.8474 H   0  0  0  0  0
   43.4193  -48.6103   65.7062 H   0  0  0  0  0
   44.5788  -47.5642   64.8633 H   0  0  0  0  0
   45.4702  -46.7829   67.0685 H   0  0  0  0  0
   44.3533  -47.8529   67.9043 H   0  0  0  0  0
   42.5191  -46.5472   66.4764 H   0  0  0  0  0
   42.0671  -46.3164   70.6773 C   0  0  0  0  0
   41.4579  -45.4095   70.7652 H   0  0  0  0  0
   41.5934  -47.0900   71.2891 H   0  0  0  0  0
   43.0517  -46.1021   71.1053 H   0  0  0  0  0
   42.7722  -47.6878   69.2005 H   0  0  0  0  0
   40.1630  -46.1927   68.0496 O   0  0  0  0  0
   39.1233  -48.3083   68.9625 H   0  0  0  0  0
   40.5237  -48.7898   69.9002 H   0  0  0  0  0
   39.9189  -50.8982   66.4611 H   0  0  0  0  0
   37.9478  -47.1500   64.9588 H   0  0  0  0  0
  1  2  1  0  0  0
  1  4  2  0  0  0
  1  5  1  0  0  0
  2  3  1  0  0  0
  5  6  1  0  0  0
  5 43  1  0  0  0
  5 68  1  0  0  0
  6  7  1  0  0  0
  7  8  2  0  0  0
  7  9  1  0  0  0
  9 10  1  0  0  0
  9 12  1  0  0  0
  9 67  1  0  0  0
 10 11  1  0  0  0
 12 13  2  0  0  0
 12 14  1  0  0  0
 14 15  1  0  0  0
 14 65  1  0  0  0
 14 66  1  0  0  0
 15 16  1  0  0  0
 15 64  2  0  0  0
 16 17  1  0  0  0
 16 59  1  0  0  0
 16 63  1  0  0  0
 17 18  2  0  0  0
 17 19  1  0  0  0
 19 20  1  0  0  0
 19 51  1  0  0  0
 19 58  1  0  0  0
 20 21  2  0  0  0
 20 22  1  0  0  0
 22 23  1  0  0  0
 22 28  1  0  0  0
 22 50  1  0  0  0
 23 24  1  0  0  0
 24 25  1  0  0  0
 24 26  1  0  0  0
 24 27  1  0  0  0
 28 29  1  0  0  0
 28 31  1  0  0  0
 28 49  1  0  0  0
 29 30  1  0  0  0
 31 32  1  0  0  0
 31 34  1  0  0  0
 31 48  1  0  0  0
 32 33  1  0  0  0
 34 35  1  0  0  0
 34 37  1  0  0  0
 34 47  1  0  0  0
 35 36  1  0  0  0
 37 38  1  0  0  0
 37 43  1  0  0  0
 37 46  1  0  0  0
 38 39  1  0  0  0
 39 40  1  0  0  0
 39 41  1  0  0  0
 39 42  1  0  0  0
 43 44  1  0  0  0
 43 45  1  0  0  0
 51 52  1  0  0  0
 51 56  1  0  0  0
 51 57  1  0  0  0
 52 53  1  0  0  0
 52 54  1  0  0  0
 52 55  1  0  0  0
 59 60  1  0  0  0
 59 61  1  0  0  0
 59 62  1  0  0  0
M  END
> <# Confs.>
25

> <Pharmacophore Match>
(1YET) [A] GDM275

> <Matching Features>
||||HBA:495067246627921590|HBA:495067385280122077|HBA:495067408768422079|HBA:495067414144822081

> <Relative Pharmacophore-Fit Score>
0.51

> <Score>
0.514516

> <Source Database>
conformers.ldb

> <Active/Decoy>
unknown

> <Mol. Index>
163

$$$$
144
XX    ILIB11302300363D

 51 51  0  0  1  0              1 V2000
   38.7610  -44.1355   64.0393 C   0  0  0  0  0
   39.3592  -44.1243   62.6474 C   0  0  0  0  0
   40.6868  -44.8494   62.4136 C   0  0  0  0  0
   41.1550  -44.5114   61.1141 O   0  0  0  0  0
   41.4189  -43.5770   61.1303 H   0  0  0  0  0
   41.7605  -44.5403   63.4619 C   0  0  0  0  0
   41.9905  -43.1299   63.4718 O   0  0  0  0  0
   42.6510  -42.9469   64.1617 H   0  0  0  0  0
   43.0863  -45.2502   63.1600 C   0  0  0  0  0
   43.8820  -45.4736   64.4406 C   0  0  0  0  0
   44.5928  -46.8041   64.6666 C   0  0  0  0  0
   45.3584  -47.1221   63.4624 N   0  0  0  0  0
   45.8662  -47.9946   63.6001 H   0  0  0  0  0
   46.0642  -46.4038   63.3061 H   0  0  0  0  0
   43.6617  -47.9679   65.0894 C   0  0  0  0  0
   42.8511  -48.3780   63.9877 O   0  0  0  0  0
   42.0973  -47.7689   63.9167 H   0  0  0  0  0
   42.7623  -47.6468   66.3141 C   0  0  0  0  0
   43.5368  -47.0135   67.3078 O   0  0  0  0  0
   42.7750  -46.1025   68.0891 C   0  0  0  0  0
   43.4411  -45.6341   68.8181 H   0  0  0  0  0
   41.9877  -46.6344   68.6310 H   0  0  0  0  0
   42.3380  -45.3185   67.4633 H   0  0  0  0  0
   42.2218  -48.9468   66.9025 C   0  0  0  0  0
   40.9502  -49.5336   66.3095 C   0  0  0  0  0
   40.9283  -50.9174   66.6223 O   0  0  0  0  0
   41.5735  -51.3576   66.0428 H   0  0  0  0  0
   39.6742  -48.9422   66.8656 C   0  0  0  0  0
   39.5504  -47.6577   66.4185 O   0  0  0  0  0
   38.4215  -46.9647   66.7527 C   0  0  0  0  0
   38.4916  -45.5702   66.1766 C   0  0  0  0  0
   39.6275  -44.9666   66.7608 O   0  0  0  0  0
   39.4284  -44.0235   66.8906 H   0  0  0  0  0
   38.5759  -45.5042   64.6593 C   0  0  0  0  0
   38.4148  -46.5061   63.9606 O   0  0  0  0  0
   37.5924  -45.0290   66.4941 H   0  0  0  0  0
   37.4711  -47.3694   67.4074 O   0  0  0  0  0
   38.8889  -49.5482   67.5828 O   0  0  0  0  0
   40.9372  -49.4481   65.2207 H   0  0  0  0  0
   42.8007  -49.5025   67.8397 O   0  0  0  0  0
   41.9306  -46.9970   66.0043 H   0  0  0  0  0
   44.2983  -48.8187   65.3345 H   0  0  0  0  0
   45.3195  -46.6380   65.4722 H   0  0  0  0  0
   43.9562  -44.5867   65.2968 O   0  0  0  0  0
   42.8934  -46.2151   62.6872 H   0  0  0  0  0
   43.7156  -44.6610   62.4832 H   0  0  0  0  0
   41.3971  -44.8206   64.4561 H   0  0  0  0  0
   40.4749  -45.9242   62.4027 H   0  0  0  0  0
   38.7812  -43.5335   61.7318 O   0  0  0  0  0
   39.3974  -43.5118   64.6727 H   0  0  0  0  0
   37.7734  -43.6624   63.9993 H   0  0  0  0  0
  1  2  1  0  0  0
  1 34  1  0  0  0
  1 50  1  0  0  0
  1 51  1  0  0  0
  2  3  1  0  0  0
  2 49  2  0  0  0
  3  4  1  0  0  0
  3  6  1  0  0  0
  3 48  1  0  0  0
  4  5  1  0  0  0
  6  7  1  0  0  0
  6  9  1  0  0  0
  6 47  1  0  0  0
  7  8  1  0  0  0
  9 10  1  0  0  0
  9 45  1  0  0  0
  9 46  1  0  0  0
 10 11  1  0  0  0
 10 44  2  0  0  0
 11 12  1  0  0  0
 11 15  1  0  0  0
 11 43  1  0  0  0
 12 13  1  0  0  0
 12 14  1  0  0  0
 15 16  1  0  0  0
 15 18  1  0  0  0
 15 42  1  0  0  0
 16 17  1  0  0  0
 18 19  1  0  0  0
 18 24  1  0  0  0
 18 41  1  0  0  0
 19 20  1  0  0  0
 20 21  1  0  0  0
 20 22  1  0  0  0
 20 23  1  0  0  0
 24 25  1  0  0  0
 24 40  2  0  0  0
 25 26  1  0  0  0
 25 28  1  0  0  0
 25 39  1  0  0  0
 26 27  1  0  0  0
 28 29  1  0  0  0
 28 38  2  0  0  0
 29 30  1  0  0  0
 30 31  1  0  0  0
 30 37  2  0  0  0
 31 32  1  0  0  0
 31 34  1  0  0  0
 31 36  1  0  0  0
 32 33  1  0  0  0
 34 35  2  0  0  0
M  END
> <# Confs.>
25

> <Pharmacophore Match>
(1YET) [A] GDM275

> <Matching Features>
||||HBA:495067246627921590|HBA:495067385280122077|HBA:495067408768422079|HBA:495067414144822081

> <Relative Pharmacophore-Fit Score>
0.50

> <Score>
0.5028498

> <Source Database>
conformers.ldb

> <Active/Decoy>
unknown

> <Mol. Index>
151

$$$$
103
XX    ILIB11302300363D

 63 63  0  0  1  0              1 V2000
   42.0623  -44.4159   61.8386 C   0  0  0  0  0
   40.7331  -43.7961   62.2879 C   0  0  0  0  0
   40.4285  -42.6368   61.9964 O   0  0  0  0  0
   39.7925  -44.5817   63.1512 C   0  0  0  0  0
   38.8883  -43.8628   63.9089 O   0  0  0  0  0
   39.0431  -42.9200   63.7308 H   0  0  0  0  0
   39.8162  -45.9221   63.1939 C   0  0  0  0  0
   38.9603  -46.7892   64.0744 C   0  0  0  0  0
   39.8073  -47.5342   65.1245 C   0  0  0  0  0
   39.0338  -48.6282   65.6203 O   0  0  0  0  0
   38.2044  -48.2683   65.9768 H   0  0  0  0  0
   40.2929  -46.6269   66.2926 C   0  0  0  0  0
   39.1779  -46.2367   67.1481 N   0  0  0  0  0
   38.7556  -47.0578   67.5751 H   0  0  0  0  0
   39.5211  -45.6623   67.9166 H   0  0  0  0  0
   41.4620  -47.2248   67.1196 C   0  0  0  0  0
   42.6810  -47.1549   66.2972 O   0  0  0  0  0
   43.3753  -45.9850   66.3091 C   0  0  0  0  0
   43.0831  -44.9536   66.8950 O   0  0  0  0  0
   44.6411  -46.1474   65.5619 C   0  0  0  0  0
   45.7555  -46.1953   66.3610 O   0  0  0  0  0
   46.9862  -46.3512   65.6619 C   0  0  0  0  0
   47.0053  -47.2961   65.1110 H   0  0  0  0  0
   47.7917  -46.3746   66.4020 H   0  0  0  0  0
   47.1689  -45.5049   64.9920 H   0  0  0  0  0
   44.6111  -46.1475   64.2133 C   0  0  0  0  0
   43.4023  -46.0706   63.3291 C   0  0  0  0  0
   43.0075  -44.6315   63.0233 C   0  0  0  0  0
   43.3844  -43.6828   63.7112 O   0  0  0  0  0
   42.5487  -46.5831   63.7731 H   0  0  0  0  0
   43.6344  -46.5794   62.3863 H   0  0  0  0  0
   45.5453  -46.2157   63.6610 H   0  0  0  0  0
   41.3367  -48.6714   67.5790 C   0  0  0  0  0
   42.4949  -49.0566   68.3314 O   0  0  0  0  0
   43.5210  -49.6116   67.4949 C   0  0  0  0  0
   43.8779  -48.8739   66.7702 H   0  0  0  0  0
   43.1547  -50.5025   66.9756 H   0  0  0  0  0
   44.3587  -49.9016   68.1344 H   0  0  0  0  0
   40.1760  -48.9409   68.5129 C   0  0  0  0  0
   39.9789  -50.3581   69.0179 C   0  0  0  0  0
   39.3836  -50.3556   70.2974 O   0  0  0  0  0
   38.5331  -49.8872   70.2390 H   0  0  0  0  0
   39.1588  -51.2272   68.1069 C   0  0  0  0  0
   39.7445  -51.3361   66.8879 O   0  0  0  0  0
   39.2265  -51.9072   66.2819 H   0  0  0  0  0
   38.1192  -51.7948   68.4120 O   0  0  0  0  0
   40.9704  -50.8148   69.1097 H   0  0  0  0  0
   39.3964  -48.0323   68.8062 O   0  0  0  0  0
   41.2175  -49.3365   66.7098 H   0  0  0  0  0
   41.6439  -46.5941   68.0022 H   0  0  0  0  0
   40.6717  -45.7041   65.8344 H   0  0  0  0  0
   40.6758  -47.9812   64.6267 H   0  0  0  0  0
   38.1582  -46.2222   64.5598 H   0  0  0  0  0
   38.4497  -47.5203   63.4356 H   0  0  0  0  0
   40.4999  -46.4801   62.5625 H   0  0  0  0  0
   42.7516  -43.5328   60.7995 C   0  0  0  0  0
   44.0866  -44.0759   60.2953 C   0  0  0  0  0
   43.8922  -45.6685   59.5267 Cl  0  0  0  0  0
   44.8042  -44.1844   61.1141 H   0  0  0  0  0
   44.5153  -43.4018   59.5501 H   0  0  0  0  0
   42.9518  -42.5512   61.2514 H   0  0  0  0  0
   42.0789  -43.3379   59.9543 H   0  0  0  0  0
   41.8486  -45.3732   61.3524 H   0  0  0  0  0
  1  2  1  0  0  0
  1 28  1  0  0  0
  1 56  1  0  0  0
  1 63  1  0  0  0
  2  3  2  0  0  0
  2  4  1  0  0  0
  4  5  1  0  0  0
  4  7  2  0  0  0
  5  6  1  0  0  0
  7  8  1  0  0  0
  7 55  1  0  0  0
  8  9  1  0  0  0
  8 53  1  0  0  0
  8 54  1  0  0  0
  9 10  1  0  0  0
  9 12  1  0  0  0
  9 52  1  0  0  0
 10 11  1  0  0  0
 12 13  1  0  0  0
 12 16  1  0  0  0
 12 51  1  0  0  0
 13 14  1  0  0  0
 13 15  1  0  0  0
 16 17  1  0  0  0
 16 33  1  0  0  0
 16 50  1  0  0  0
 17 18  1  0  0  0
 18 19  2  0  0  0
 18 20  1  0  0  0
 20 21  1  0  0  0
 20 26  2  0  0  0
 21 22  1  0  0  0
 22 23  1  0  0  0
 22 24  1  0  0  0
 22 25  1  0  0  0
 26 27  1  0  0  0
 26 32  1  0  0  0
 27 28  1  0  0  0
 27 30  1  0  0  0
 27 31  1  0  0  0
 28 29  2  0  0  0
 33 34  1  0  0  0
 33 39  1  0  0  0
 33 49  1  0  0  0
 34 35  1  0  0  0
 35 36  1  0  0  0
 35 37  1  0  0  0
 35 38  1  0  0  0
 39 40  1  0  0  0
 39 48  2  0  0  0
 40 41  1  0  0  0
 40 43  1  0  0  0
 40 47  1  0  0  0
 41 42  1  0  0  0
 43 44  1  0  0  0
 43 46  2  0  0  0
 44 45  1  0  0  0
 56 57  1  0  0  0
 56 61  1  0  0  0
 56 62  1  0  0  0
 57 58  1  0  0  0
 57 59  1  0  0  0
 57 60  1  0  0  0
M  END
> <# Confs.>
25

> <Pharmacophore Match>
(1YET) [A] GDM275

> <Matching Features>
||||HBA:495067246627921590|HBA:495067385280122077|HBA:495067408768422079|HBA:495067414144822081

> <Relative Pharmacophore-Fit Score>
0.50

> <Score>
0.5009797

> <Source Database>
conformers.ldb

> <Active/Decoy>
unknown

> <Mol. Index>
109

$$$$
147
XX    ILIB11302300363D

 45 45  0  0  1  0              1 V2000
   41.3448  -47.6819   68.2596 C   0  0  0  0  0
   41.7739  -49.0962   67.9104 C   0  0  0  0  0
   42.9394  -49.4629   68.0585 O   0  0  0  0  0
   40.7267  -49.9861   67.2760 C   0  0  0  0  0
   41.1877  -51.3154   67.2152 O   0  0  0  0  0
   41.3347  -51.6233   68.1257 H   0  0  0  0  0
   39.4005  -49.9260   68.0015 C   0  0  0  0  0
   38.7201  -50.9284   68.2125 O   0  0  0  0  0
   38.8984  -48.5514   68.3601 C   0  0  0  0  0
   39.9684  -47.6351   68.9048 C   0  0  0  0  0
   39.6975  -46.7883   69.7578 O   0  0  0  0  0
   38.4639  -48.0938   67.4667 H   0  0  0  0  0
   38.1185  -48.6581   69.1221 H   0  0  0  0  0
   40.5654  -49.6412   66.2497 H   0  0  0  0  0
   41.4716  -46.7411   67.0849 C   0  0  0  0  0
   42.7817  -46.0056   66.8870 C   0  0  0  0  0
   42.5089  -44.5634   66.9418 N   0  0  0  0  0
   43.3778  -44.0401   66.8413 H   0  0  0  0  0
   42.1390  -44.3221   67.8602 H   0  0  0  0  0
   43.4439  -46.4220   65.5762 C   0  0  0  0  0
   43.7170  -47.8194   65.5711 O   0  0  0  0  0
   44.2260  -48.0190   66.3752 H   0  0  0  0  0
   42.7215  -46.0506   64.2652 C   0  0  0  0  0
   42.5044  -44.5496   64.1220 C   0  0  0  0  0
   41.0900  -44.0170   64.0268 C   0  0  0  0  0
   41.0086  -42.7148   64.5622 O   0  0  0  0  0
   41.6279  -42.1436   64.0757 H   0  0  0  0  0
   40.5318  -43.9996   62.6317 C   0  0  0  0  0
   40.5039  -45.2511   62.1082 O   0  0  0  0  0
   40.1345  -45.2599   61.1987 H   0  0  0  0  0
   40.1252  -43.0091   62.0410 O   0  0  0  0  0
   40.4517  -44.6700   64.6312 H   0  0  0  0  0
   43.4697  -43.7855   64.0775 O   0  0  0  0  0
   43.3273  -46.6407   62.9975 C   0  0  0  0  0
   44.7675  -46.2354   62.6795 C   0  0  0  0  0
   45.3422  -46.9936   61.1742 Cl  0  0  0  0  0
   45.4371  -46.5529   63.4835 H   0  0  0  0  0
   44.8581  -45.1507   62.5643 H   0  0  0  0  0
   43.2566  -47.7355   63.0266 H   0  0  0  0  0
   42.6974  -46.3193   62.1571 H   0  0  0  0  0
   41.6980  -46.4830   64.3575 H   0  0  0  0  0
   44.4295  -45.9238   65.5163 H   0  0  0  0  0
   43.4385  -46.2540   67.7299 H   0  0  0  0  0
   40.5316  -46.5781   66.3048 O   0  0  0  0  0
   42.0408  -47.3273   69.0325 H   0  0  0  0  0
  1  2  1  0  0  0
  1 15  1  0  0  0
  1 10  1  0  0  0
  1 45  1  0  0  0
  2  3  2  0  0  0
  2  4  1  0  0  0
  4  5  1  0  0  0
  4  7  1  0  0  0
  4 14  1  0  0  0
  5  6  1  0  0  0
  7  8  2  0  0  0
  7  9  1  0  0  0
  9 10  1  0  0  0
  9 12  1  0  0  0
  9 13  1  0  0  0
 10 11  2  0  0  0
 15 16  1  0  0  0
 15 44  2  0  0  0
 16 17  1  0  0  0
 16 20  1  0  0  0
 16 43  1  0  0  0
 17 18  1  0  0  0
 17 19  1  0  0  0
 20 21  1  0  0  0
 20 23  1  0  0  0
 20 42  1  0  0  0
 21 22  1  0  0  0
 23 24  1  0  0  0
 23 34  1  0  0  0
 23 41  1  0  0  0
 24 25  1  0  0  0
 24 33  2  0  0  0
 25 26  1  0  0  0
 25 28  1  0  0  0
 25 32  1  0  0  0
 26 27  1  0  0  0
 28 29  1  0  0  0
 28 31  2  0  0  0
 29 30  1  0  0  0
 34 35  1  0  0  0
 34 39  1  0  0  0
 34 40  1  0  0  0
 35 36  1  0  0  0
 35 37  1  0  0  0
 35 38  1  0  0  0
M  END
> <# Confs.>
25

> <Pharmacophore Match>
(1YET) [A] GDM275

> <Matching Features>
||||HBA:495067246627921590|HBA:495067385280122077|HBA:495067408768422079|HBA:495067414144822081

> <Relative Pharmacophore-Fit Score>
0.51

> <Score>
0.508269

> <Source Database>
conformers.ldb

> <Active/Decoy>
unknown

> <Mol. Index>
141

$$$$
