2
XX    ILIB11232304573D

 41 41  0  0  1  0              1 V2000
   38.0667  -49.4610   67.5167 O   0  0  0  0  0
   38.2648  -48.4752   68.6232 C   0  0  0  0  0
   37.5862  -49.7098   68.6822 C   0  0  0  0  0
   36.9750  -50.4915   69.3267 O   0  0  0  0  0
   38.9571  -47.4138   68.2254 C   0  0  0  0  0
   39.5428  -47.1354   66.8727 C   0  0  0  0  0
   41.0698  -46.9577   66.8816 C   0  0  0  0  0
   41.6462  -48.1655   67.3784 O   0  0  0  0  0
   41.4610  -48.8680   66.7315 H   0  0  0  0  0
   41.7305  -46.6122   65.5443 C   0  0  0  0  0
   43.1805  -46.4646   65.6690 N   0  0  0  0  0
   43.5882  -47.3335   66.0112 H   0  0  0  0  0
   43.5879  -46.3071   64.7477 H   0  0  0  0  0
   41.1641  -45.3074   64.9899 C   0  0  0  0  0
   40.7556  -44.4235   65.7277 O   0  0  0  0  0
   41.1276  -45.1641   63.4893 C   0  0  0  0  0
   41.2799  -43.7378   62.9927 C   0  0  0  0  0
   40.3924  -43.1960   62.3208 O   0  0  0  0  0
   42.5465  -43.0025   63.3592 C   0  0  0  0  0
   43.7677  -43.6948   62.8144 C   0  0  0  0  0
   44.8598  -43.5011   63.5979 O   0  0  0  0  0
   44.7073  -42.9519   64.3970 H   0  0  0  0  0
   43.7917  -44.3722   61.7953 O   0  0  0  0  0
   42.4811  -41.5647   62.8556 C   0  0  0  0  0
   42.3994  -41.5218   61.7640 H   0  0  0  0  0
   41.6115  -41.0451   63.2719 H   0  0  0  0  0
   43.3819  -41.0107   63.1416 H   0  0  0  0  0
   42.6274  -42.9627   64.4526 H   0  0  0  0  0
   39.9101  -45.8797   62.8938 C   0  0  0  0  0
   38.5724  -45.3532   63.4025 C   0  0  0  0  0
   38.4848  -45.4606   64.4876 H   0  0  0  0  0
   38.4335  -44.2985   63.1471 H   0  0  0  0  0
   37.7526  -45.9162   62.9449 H   0  0  0  0  0
   39.9245  -45.7837   61.8009 H   0  0  0  0  0
   39.9674  -46.9514   63.1194 H   0  0  0  0  0
   42.0293  -45.6938   63.1137 H   0  0  0  0  0
   41.5297  -47.4014   64.8095 H   0  0  0  0  0
   41.3128  -46.1790   67.6129 H   0  0  0  0  0
   39.2789  -47.9677   66.2084 H   0  0  0  0  0
   39.0826  -46.2317   66.4528 H   0  0  0  0  0
   39.1389  -46.6472   68.9777 H   0  0  0  0  0
  1  2  1  0  0  0
  1  3  1  0  0  0
  2  3  1  0  0  0
  2  5  2  0  0  0
  3  4  2  0  0  0
  5  6  1  0  0  0
  5 41  1  0  0  0
  6  7  1  0  0  0
  6 39  1  0  0  0
  6 40  1  0  0  0
  7  8  1  0  0  0
  7 10  1  0  0  0
  7 38  1  0  0  0
  8  9  1  0  0  0
 10 11  1  0  0  0
 10 14  1  0  0  0
 10 37  1  0  0  0
 11 12  1  0  0  0
 11 13  1  0  0  0
 14 15  2  0  0  0
 14 16  1  0  0  0
 16 17  1  0  0  0
 16 29  1  0  0  0
 16 36  1  0  0  0
 17 18  2  0  0  0
 17 19  1  0  0  0
 19 20  1  0  0  0
 19 24  1  0  0  0
 19 28  1  0  0  0
 20 21  1  0  0  0
 20 23  2  0  0  0
 21 22  1  0  0  0
 24 25  1  0  0  0
 24 26  1  0  0  0
 24 27  1  0  0  0
 29 30  1  0  0  0
 29 34  1  0  0  0
 29 35  1  0  0  0
 30 31  1  0  0  0
 30 32  1  0  0  0
 30 33  1  0  0  0
M  END
> <# Confs.>
25

> <Pharmacophore Match>
(1YET) [A] GDM275

> <Matching Features>
|H:495067279551021655|||HBA:495067246627921590|HBA:495067385280122077|HBA:495067408768422079|HBA:495067414144822081

> <Relative Pharmacophore-Fit Score>
0.61

> <Score>
0.60719717

> <Source Database>
conformers.ldb

> <Active/Decoy>
unknown

> <Mol. Index>
1

$$$$
0
XX    ILIB11232304573D

 56 55  0  0  1  0              1 V2000
   41.9465  -44.5670   66.7971 C   0  0  0  0  0
   40.7447  -43.6736   67.7593 Cl  0  0  0  0  0
   41.3037  -45.6792   65.9980 C   0  0  0  0  0
   42.2817  -46.4744   65.1364 C   0  0  0  0  0
   42.9928  -45.5935   64.1399 C   0  0  0  0  0
   42.4176  -45.3755   62.7612 C   0  0  0  0  0
   41.4897  -44.1881   62.7140 C   0  0  0  0  0
   40.3268  -44.1582   61.7407 C   0  0  0  0  0
   39.0394  -44.7363   62.2694 C   0  0  0  0  0
   38.0368  -44.6836   61.3588 O   0  0  0  0  0
   37.1970  -45.0434   61.7148 H   0  0  0  0  0
   38.8978  -45.1716   63.4042 O   0  0  0  0  0
   40.1468  -42.7429   61.1814 C   0  0  0  0  0
   41.3768  -42.2402   60.4387 C   0  0  0  0  0
   41.2148  -41.2134   60.0986 H   0  0  0  0  0
   42.2563  -42.2462   61.0906 H   0  0  0  0  0
   41.5929  -42.8545   59.5592 H   0  0  0  0  0
   39.9316  -42.0510   62.0045 H   0  0  0  0  0
   39.2828  -42.7095   60.5057 H   0  0  0  0  0
   40.6099  -44.8113   60.9028 H   0  0  0  0  0
   41.6737  -43.2366   63.4796 O   0  0  0  0  0
   43.5515  -45.2550   61.7376 C   0  0  0  0  0
   44.1593  -44.3625   61.9197 H   0  0  0  0  0
   44.2166  -46.1240   61.7811 H   0  0  0  0  0
   43.1504  -45.1820   60.7208 H   0  0  0  0  0
   41.8337  -46.2671   62.4852 H   0  0  0  0  0
   44.0573  -45.0398   64.4600 O   0  0  0  0  0
   43.2820  -47.3417   65.9335 C   0  0  0  0  0
   42.6164  -48.3954   66.8224 C   0  0  0  0  0
   41.7505  -49.4069   66.0405 C   0  0  0  0  0
   40.6991  -48.7441   65.3396 O   0  0  0  0  0
   40.0864  -48.3698   65.9945 H   0  0  0  0  0
   41.1766  -50.5641   66.8576 C   0  0  0  0  0
   40.4030  -51.4232   66.0338 O   0  0  0  0  0
   39.6460  -50.9183   65.6917 H   0  0  0  0  0
   40.3619  -50.0887   68.0326 C   0  0  0  0  0
   39.0541  -49.9209   67.7207 O   0  0  0  0  0
   38.5332  -49.5929   68.4843 H   0  0  0  0  0
   40.8291  -49.8448   69.1373 O   0  0  0  0  0
   41.9990  -51.1677   67.2597 H   0  0  0  0  0
   42.3967  -49.8504   65.2723 H   0  0  0  0  0
   43.7223  -49.1175   67.6220 C   0  0  0  0  0
   44.7397  -49.8125   66.7279 C   0  0  0  0  0
   45.4756  -50.3439   67.3398 H   0  0  0  0  0
   44.2522  -50.5429   66.0751 H   0  0  0  0  0
   45.2807  -49.0953   66.1029 H   0  0  0  0  0
   43.2655  -49.8681   68.2776 H   0  0  0  0  0
   44.2459  -48.4057   68.2731 H   0  0  0  0  0
   41.9689  -47.8760   67.5422 H   0  0  0  0  0
   43.9915  -47.8222   65.2453 H   0  0  0  0  0
   43.8863  -46.6812   66.5713 H   0  0  0  0  0
   41.6798  -47.1832   64.5536 H   0  0  0  0  0
   40.7434  -46.3526   66.6620 H   0  0  0  0  0
   40.5462  -45.2388   65.3239 H   0  0  0  0  0
   42.4342  -43.8492   66.1308 H   0  0  0  0  0
   42.6987  -44.9626   67.4857 H   0  0  0  0  0
  1  2  1  0  0  0
  1  3  1  0  0  0
  1 55  1  0  0  0
  1 56  1  0  0  0
  3  4  1  0  0  0
  3 53  1  0  0  0
  3 54  1  0  0  0
  4  5  1  0  0  0
  4 28  1  0  0  0
  4 52  1  0  0  0
  5  6  1  0  0  0
  5 27  2  0  0  0
  6  7  1  0  0  0
  6 22  1  0  0  0
  6 26  1  0  0  0
  7  8  1  0  0  0
  7 21  2  0  0  0
  8  9  1  0  0  0
  8 13  1  0  0  0
  8 20  1  0  0  0
  9 10  1  0  0  0
  9 12  2  0  0  0
 10 11  1  0  0  0
 13 14  1  0  0  0
 13 18  1  0  0  0
 13 19  1  0  0  0
 14 15  1  0  0  0
 14 16  1  0  0  0
 14 17  1  0  0  0
 22 23  1  0  0  0
 22 24  1  0  0  0
 22 25  1  0  0  0
 28 29  1  0  0  0
 28 50  1  0  0  0
 28 51  1  0  0  0
 29 30  1  0  0  0
 29 42  1  0  0  0
 29 49  1  0  0  0
 30 31  1  0  0  0
 30 33  1  0  0  0
 30 41  1  0  0  0
 31 32  1  0  0  0
 33 34  1  0  0  0
 33 36  1  0  0  0
 33 40  1  0  0  0
 34 35  1  0  0  0
 36 37  1  0  0  0
 36 39  2  0  0  0
 37 38  1  0  0  0
 42 43  1  0  0  0
 42 47  1  0  0  0
 42 48  1  0  0  0
 43 44  1  0  0  0
 43 45  1  0  0  0
 43 46  1  0  0  0
M  END
> <# Confs.>
25

> <Pharmacophore Match>
(1YET) [A] GDM275

> <Matching Features>
||||HBA:495067246627921590|HBA:495067385280122077|HBA:495067408768422079|HBA:495067414144822081

> <Relative Pharmacophore-Fit Score>
0.49

> <Score>
0.4897199

> <Source Database>
conformers.ldb

> <Active/Decoy>
unknown

> <Mol. Index>
3

$$$$
22
XX    ILIB11232304573D

 43 43  0  0  1  0              1 V2000
   42.0856  -47.2365   66.1136 C   0  0  0  0  0
   42.2956  -48.4355   67.0470 C   0  0  0  0  0
   43.5840  -48.3372   67.6592 O   0  0  0  0  0
   43.5845  -47.5508   68.2312 H   0  0  0  0  0
   41.2188  -48.5920   68.0796 C   0  0  0  0  0
   41.4250  -49.7847   69.0108 O   0  0  0  0  0
   40.3807  -49.7075   68.2357 C   0  0  0  0  0
   39.3618  -50.2217   67.8740 O   0  0  0  0  0
   40.9464  -47.6614   68.5623 H   0  0  0  0  0
   42.3150  -49.3498   66.4428 H   0  0  0  0  0
   42.1517  -45.8902   66.8395 C   0  0  0  0  0
   41.9615  -44.6919   65.9226 C   0  0  0  0  0
   42.0269  -43.4431   66.6757 N   0  0  0  0  0
   42.9413  -43.3495   67.1144 H   0  0  0  0  0
   41.9172  -42.6469   66.0497 H   0  0  0  0  0
   42.9795  -44.6305   64.8112 C   0  0  0  0  0
   42.4774  -44.6708   63.3926 C   0  0  0  0  0
   42.1648  -43.3037   62.8208 C   0  0  0  0  0
   41.0724  -43.2226   61.7828 C   0  0  0  0  0
   39.7076  -42.9855   62.3789 C   0  0  0  0  0
   38.7625  -42.9219   61.4066 O   0  0  0  0  0
   37.8707  -42.7437   61.7756 H   0  0  0  0  0
   39.4644  -42.8285   63.5666 O   0  0  0  0  0
   41.4187  -42.1570   60.7491 C   0  0  0  0  0
   41.3017  -41.1464   61.1588 H   0  0  0  0  0
   40.7626  -42.2292   59.8743 H   0  0  0  0  0
   42.4515  -42.2614   60.4024 H   0  0  0  0  0
   41.0415  -44.2024   61.2892 H   0  0  0  0  0
   42.8121  -42.3023   63.1304 O   0  0  0  0  0
   43.4755  -45.4233   62.5176 C   0  0  0  0  0
   44.3738  -44.8250   62.3280 H   0  0  0  0  0
   43.0362  -45.6689   61.5447 H   0  0  0  0  0
   43.7883  -46.3602   62.9902 H   0  0  0  0  0
   41.5336  -45.2302   63.4219 H   0  0  0  0  0
   44.1906  -44.5794   65.0504 O   0  0  0  0  0
   40.9573  -44.7572   65.4570 H   0  0  0  0  0
   41.3887  -45.8701   67.6290 H   0  0  0  0  0
   43.1273  -45.7987   67.3505 H   0  0  0  0  0
   40.7225  -47.3671   65.4255 C   0  0  0  0  0
   40.6570  -48.3054   64.8641 H   0  0  0  0  0
   39.9057  -47.3506   66.1551 H   0  0  0  0  0
   40.5625  -46.5469   64.7181 H   0  0  0  0  0
   42.8553  -47.2575   65.3314 H   0  0  0  0  0
  1  2  1  0  0  0
  1 11  1  0  0  0
  1 39  1  0  0  0
  1 43  1  0  0  0
  2  3  1  0  0  0
  2  5  1  0  0  0
  2 10  1  0  0  0
  3  4  1  0  0  0
  5  6  1  0  0  0
  5  7  1  0  0  0
  5  9  1  0  0  0
  6  7  1  0  0  0
  7  8  2  0  0  0
 11 12  1  0  0  0
 11 37  1  0  0  0
 11 38  1  0  0  0
 12 13  1  0  0  0
 12 16  1  0  0  0
 12 36  1  0  0  0
 13 14  1  0  0  0
 13 15  1  0  0  0
 16 17  1  0  0  0
 16 35  2  0  0  0
 17 18  1  0  0  0
 17 30  1  0  0  0
 17 34  1  0  0  0
 18 19  1  0  0  0
 18 29  2  0  0  0
 19 20  1  0  0  0
 19 24  1  0  0  0
 19 28  1  0  0  0
 20 21  1  0  0  0
 20 23  2  0  0  0
 21 22  1  0  0  0
 24 25  1  0  0  0
 24 26  1  0  0  0
 24 27  1  0  0  0
 30 31  1  0  0  0
 30 32  1  0  0  0
 30 33  1  0  0  0
 39 40  1  0  0  0
 39 41  1  0  0  0
 39 42  1  0  0  0
M  END
> <# Confs.>
25

> <Pharmacophore Match>
(1YET) [A] GDM275

> <Matching Features>
||||HBA:495067246627921590|HBA:495067385280122077|HBA:495067408768422079|HBA:495067414144822081

> <Relative Pharmacophore-Fit Score>
0.50

> <Score>
0.49855942

> <Source Database>
conformers.ldb

> <Active/Decoy>
unknown

> <Mol. Index>
11

$$$$
23
XX    ILIB11232304573D

 43 43  0  0  1  0              1 V2000
   39.9333  -48.8241   64.4861 C   0  0  0  0  0
   40.1492  -49.8970   65.5527 C   0  0  0  0  0
   38.8870  -50.5335   65.9219 O   0  0  0  0  0
   39.0143  -50.1852   67.2285 C   0  0  0  0  0
   38.2824  -50.4473   68.1552 O   0  0  0  0  0
   40.3278  -49.4151   67.0028 C   0  0  0  0  0
   41.4478  -49.9472   67.7251 O   0  0  0  0  0
   41.2979  -49.6894   68.6510 H   0  0  0  0  0
   40.2215  -48.3379   67.1623 H   0  0  0  0  0
   40.8805  -50.6613   65.2556 H   0  0  0  0  0
   41.2458  -48.1659   64.0979 C   0  0  0  0  0
   41.1312  -47.0654   63.0497 C   0  0  0  0  0
   42.4307  -46.4818   62.7206 N   0  0  0  0  0
   43.0527  -47.1966   62.3467 H   0  0  0  0  0
   42.3204  -45.7924   61.9782 H   0  0  0  0  0
   40.2239  -45.9544   63.5271 C   0  0  0  0  0
   40.8861  -44.8331   64.2939 C   0  0  0  0  0
   41.3347  -43.6981   63.3797 C   0  0  0  0  0
   42.5547  -42.9179   63.8355 C   0  0  0  0  0
   43.8459  -43.4919   63.3223 C   0  0  0  0  0
   44.8614  -43.2544   64.1880 O   0  0  0  0  0
   45.7149  -43.6054   63.8557 H   0  0  0  0  0
   43.9890  -44.0652   62.2523 O   0  0  0  0  0
   42.4067  -41.4499   63.4466 C   0  0  0  0  0
   42.5384  -41.3060   62.3686 H   0  0  0  0  0
   43.1567  -40.8330   63.9519 H   0  0  0  0  0
   41.4171  -41.0665   63.7196 H   0  0  0  0  0
   42.5804  -42.9971   64.9303 H   0  0  0  0  0
   40.7303  -43.3987   62.3479 O   0  0  0  0  0
   39.9638  -44.3218   65.3879 C   0  0  0  0  0
   39.1264  -43.7471   64.9777 H   0  0  0  0  0
   40.5022  -43.6649   66.0787 H   0  0  0  0  0
   39.5494  -45.1522   65.9691 H   0  0  0  0  0
   41.7910  -45.2509   64.7397 H   0  0  0  0  0
   38.9955  -45.9884   63.3637 O   0  0  0  0  0
   40.6984  -47.4808   62.1175 H   0  0  0  0  0
   41.9511  -48.9323   63.7468 H   0  0  0  0  0
   41.7129  -47.7455   65.0107 H   0  0  0  0  0
   39.2412  -49.4384   63.2680 C   0  0  0  0  0
   39.8097  -50.2809   62.8601 H   0  0  0  0  0
   39.1119  -48.6943   62.4756 H   0  0  0  0  0
   38.2488  -49.8164   63.5340 H   0  0  0  0  0
   39.2762  -48.0415   64.8880 H   0  0  0  0  0
  1  2  1  0  0  0
  1 11  1  0  0  0
  1 39  1  0  0  0
  1 43  1  0  0  0
  2  3  1  0  0  0
  2  6  1  0  0  0
  2 10  1  0  0  0
  3  4  1  0  0  0
  4  5  2  0  0  0
  4  6  1  0  0  0
  6  7  1  0  0  0
  6  9  1  0  0  0
  7  8  1  0  0  0
 11 12  1  0  0  0
 11 37  1  0  0  0
 11 38  1  0  0  0
 12 13  1  0  0  0
 12 16  1  0  0  0
 12 36  1  0  0  0
 13 14  1  0  0  0
 13 15  1  0  0  0
 16 17  1  0  0  0
 16 35  2  0  0  0
 17 18  1  0  0  0
 17 30  1  0  0  0
 17 34  1  0  0  0
 18 19  1  0  0  0
 18 29  2  0  0  0
 19 20  1  0  0  0
 19 24  1  0  0  0
 19 28  1  0  0  0
 20 21  1  0  0  0
 20 23  2  0  0  0
 21 22  1  0  0  0
 24 25  1  0  0  0
 24 26  1  0  0  0
 24 27  1  0  0  0
 30 31  1  0  0  0
 30 32  1  0  0  0
 30 33  1  0  0  0
 39 40  1  0  0  0
 39 41  1  0  0  0
 39 42  1  0  0  0
M  END
> <# Confs.>
25

> <Pharmacophore Match>
(1YET) [A] GDM275

> <Matching Features>
H:495067227192821472|H:495067279551021655||H:495067340233021826|HBA:495067246627921590|HBA:495067385280122077|HBA:495067408768422079|HBA:495067414144822081

> <Relative Pharmacophore-Fit Score>
0.85

> <Score>
0.8456788

> <Source Database>
conformers.ldb

> <Active/Decoy>
unknown

> <Mol. Index>
12

$$$$
55
XX    ILIB11232304573D

 49 48  0  0  1  0              1 V2000
   41.1271  -44.0752   61.7288 C   0  0  0  0  0
   39.9411  -44.6598   61.4179 O   0  0  0  0  0
   39.2693  -44.6433   62.1332 H   0  0  0  0  0
   42.0568  -43.9944   60.9375 O   0  0  0  0  0
   41.1422  -43.5299   63.1332 C   0  0  0  0  0
   42.5345  -43.5550   63.7328 C   0  0  0  0  0
   43.0960  -42.5245   64.1067 O   0  0  0  0  0
   43.2142  -44.9061   63.8422 C   0  0  0  0  0
   44.6142  -44.7345   63.7393 O   0  0  0  0  0
   45.0794  -44.8124   62.3983 C   0  0  0  0  0
   44.8812  -45.8054   61.9841 H   0  0  0  0  0
   44.6033  -44.0438   61.7820 H   0  0  0  0  0
   46.1585  -44.6421   62.3983 H   0  0  0  0  0
   42.9187  -45.6044   65.1409 C   0  0  0  0  0
   42.1988  -45.0862   66.0127 O   0  0  0  0  0
   43.5523  -46.9695   65.3783 C   0  0  0  0  0
   42.6897  -47.8553   66.2714 C   0  0  0  0  0
   42.5378  -47.1951   67.5395 O   0  0  0  0  0
   42.0208  -46.3856   67.3863 H   0  0  0  0  0
   41.3024  -48.2251   65.7556 C   0  0  0  0  0
   40.5614  -49.1083   66.7411 C   0  0  0  0  0
   41.0049  -50.2050   67.0854 O   0  0  0  0  0
   39.2415  -48.5897   67.2771 C   0  0  0  0  0
   38.5669  -49.5170   68.2462 C   0  0  0  0  0
   39.3325  -49.7630   69.3408 O   0  0  0  0  0
   40.2014  -49.3070   69.3507 H   0  0  0  0  0
   37.4483  -49.9939   68.0965 O   0  0  0  0  0
   38.5799  -48.4059   66.4238 H   0  0  0  0  0
   39.4307  -47.6362   67.7817 H   0  0  0  0  0
   41.2988  -48.8690   64.3648 C   0  0  0  0  0
   39.9145  -49.2404   63.8438 C   0  0  0  0  0
   39.4157  -49.9574   64.5034 H   0  0  0  0  0
   39.2737  -48.3593   63.7448 H   0  0  0  0  0
   39.9998  -49.7018   62.8550 H   0  0  0  0  0
   41.7635  -48.1833   63.6457 H   0  0  0  0  0
   41.9154  -49.7758   64.3829 H   0  0  0  0  0
   40.7148  -47.2981   65.6924 H   0  0  0  0  0
   43.2514  -48.7746   66.4868 H   0  0  0  0  0
   44.9625  -46.7542   65.9444 C   0  0  0  0  0
   44.9434  -46.2372   66.9101 H   0  0  0  0  0
   45.5688  -46.1472   65.2631 H   0  0  0  0  0
   45.4681  -47.7156   66.0821 H   0  0  0  0  0
   43.6570  -47.4442   64.4000 H   0  0  0  0  0
   42.8546  -45.5671   63.0434 H   0  0  0  0  0
   40.5836  -42.1101   63.1467 C   0  0  0  0  0
   41.1936  -41.4302   62.5418 H   0  0  0  0  0
   39.5655  -42.0870   62.7428 H   0  0  0  0  0
   40.5580  -41.7125   64.1668 H   0  0  0  0  0
   40.4834  -44.1468   63.7569 H   0  0  0  0  0
  1  2  1  0  0  0
  1  4  2  0  0  0
  1  5  1  0  0  0
  2  3  1  0  0  0
  5  6  1  0  0  0
  5 45  1  0  0  0
  5 49  1  0  0  0
  6  7  2  0  0  0
  6  8  1  0  0  0
  8  9  1  0  0  0
  8 14  1  0  0  0
  8 44  1  0  0  0
  9 10  1  0  0  0
 10 11  1  0  0  0
 10 12  1  0  0  0
 10 13  1  0  0  0
 14 15  2  0  0  0
 14 16  1  0  0  0
 16 17  1  0  0  0
 16 39  1  0  0  0
 16 43  1  0  0  0
 17 18  1  0  0  0
 17 20  1  0  0  0
 17 38  1  0  0  0
 18 19  1  0  0  0
 20 21  1  0  0  0
 20 30  1  0  0  0
 20 37  1  0  0  0
 21 22  2  0  0  0
 21 23  1  0  0  0
 23 24  1  0  0  0
 23 28  1  0  0  0
 23 29  1  0  0  0
 24 25  1  0  0  0
 24 27  2  0  0  0
 25 26  1  0  0  0
 30 31  1  0  0  0
 30 35  1  0  0  0
 30 36  1  0  0  0
 31 32  1  0  0  0
 31 33  1  0  0  0
 31 34  1  0  0  0
 39 40  1  0  0  0
 39 41  1  0  0  0
 39 42  1  0  0  0
 45 46  1  0  0  0
 45 47  1  0  0  0
 45 48  1  0  0  0
M  END
> <# Confs.>
25

> <Pharmacophore Match>
(1YET) [A] GDM275

> <Matching Features>
|||H:495067340233021826|HBA:495067246627921590|HBA:495067385280122077|HBA:495067408768422079|HBA:495067414144822081

> <Relative Pharmacophore-Fit Score>
0.61

> <Score>
0.606404

> <Source Database>
conformers.ldb

> <Active/Decoy>
unknown

> <Mol. Index>
46

$$$$
57
XX    ILIB11232304573D

 51 51  0  0  1  0              1 V2000
   42.9923  -44.5301   63.6767 C   0  0  0  0  0
   43.7356  -45.5629   63.1502 N   0  0  0  0  0
   44.6294  -45.3866   62.7020 H   0  0  0  0  0
   43.4265  -46.5291   63.1856 H   0  0  0  0  0
   43.3444  -43.3547   63.6588 O   0  0  0  0  0
   41.6997  -45.0019   64.2958 C   0  0  0  0  0
   40.4631  -44.4097   63.6701 C   0  0  0  0  0
   39.0881  -44.7889   64.1845 C   0  0  0  0  0
   38.7079  -43.8343   65.2644 C   0  0  0  0  0
   38.4084  -44.1275   66.5427 C   0  0  0  0  0
   38.3705  -45.4972   67.1349 C   0  0  0  0  0
   37.3913  -46.2448   66.4201 O   0  0  0  0  0
   37.2912  -47.1062   66.8608 H   0  0  0  0  0
   39.6873  -46.3062   67.1088 C   0  0  0  0  0
   39.5370  -47.6895   67.7330 C   0  0  0  0  0
   39.1324  -47.5252   69.0977 O   0  0  0  0  0
   39.8531  -47.0719   69.5663 H   0  0  0  0  0
   40.7945  -48.5605   67.7280 C   0  0  0  0  0
   41.8132  -47.8933   68.4562 O   0  0  0  0  0
   42.6103  -48.4507   68.4382 H   0  0  0  0  0
   41.2838  -48.7531   66.2988 C   0  0  0  0  0
   42.1189  -48.0065   65.7893 O   0  0  0  0  0
   40.6907  -49.8604   65.4919 C   0  0  0  0  0
   40.9250  -49.7801   64.1426 O   0  0  0  0  0
   40.3589  -50.8364   63.3750 C   0  0  0  0  0
   40.7831  -51.8030   63.6674 H   0  0  0  0  0
   39.2689  -50.8483   63.4651 H   0  0  0  0  0
   40.6097  -50.6622   62.3249 H   0  0  0  0  0
   39.9957  -50.8181   66.1338 C   0  0  0  0  0
   39.7746  -50.9439   67.6134 C   0  0  0  0  0
   38.4001  -50.7588   67.9365 O   0  0  0  0  0
   37.9970  -51.4849   69.0893 C   0  0  0  0  0
   38.0974  -52.5622   68.9297 H   0  0  0  0  0
   38.5874  -51.1801   69.9557 H   0  0  0  0  0
   36.9439  -51.2639   69.2815 H   0  0  0  0  0
   40.5259  -49.8963   68.4088 C   0  0  0  0  0
   40.8456  -50.1071   69.5803 O   0  0  0  0  0
   40.1333  -51.9246   67.9549 H   0  0  0  0  0
   39.5547  -51.6293   65.5598 H   0  0  0  0  0
   38.7204  -48.2298   67.2381 H   0  0  0  0  0
   40.0391  -46.4052   66.0741 H   0  0  0  0  0
   40.4599  -45.7467   67.6524 H   0  0  0  0  0
   38.0411  -45.4236   68.1779 H   0  0  0  0  0
   38.1179  -43.1203   67.4506 O   0  0  0  0  0
   38.1741  -42.2651   66.9899 H   0  0  0  0  0
   38.6875  -42.7874   64.9625 H   0  0  0  0  0
   39.1036  -45.8275   64.5312 H   0  0  0  0  0
   38.3759  -44.7358   63.3557 H   0  0  0  0  0
   40.5706  -43.6095   62.7357 O   0  0  0  0  0
   41.6552  -46.0919   64.1941 H   0  0  0  0  0
   41.6808  -44.7708   65.3667 H   0  0  0  0  0
  1  2  1  0  0  0
  1  5  2  0  0  0
  1  6  1  0  0  0
  2  3  1  0  0  0
  2  4  1  0  0  0
  6  7  1  0  0  0
  6 50  1  0  0  0
  6 51  1  0  0  0
  7  8  1  0  0  0
  7 49  2  0  0  0
  8  9  1  0  0  0
  8 47  1  0  0  0
  8 48  1  0  0  0
  9 10  2  0  0  0
  9 46  1  0  0  0
 10 11  1  0  0  0
 10 44  1  0  0  0
 11 12  1  0  0  0
 11 14  1  0  0  0
 11 43  1  0  0  0
 12 13  1  0  0  0
 14 15  1  0  0  0
 14 41  1  0  0  0
 14 42  1  0  0  0
 15 16  1  0  0  0
 15 18  1  0  0  0
 15 40  1  0  0  0
 16 17  1  0  0  0
 18 19  1  0  0  0
 18 21  1  0  0  0
 18 36  1  0  0  0
 19 20  1  0  0  0
 21 22  2  0  0  0
 21 23  1  0  0  0
 23 24  1  0  0  0
 23 29  2  0  0  0
 24 25  1  0  0  0
 25 26  1  0  0  0
 25 27  1  0  0  0
 25 28  1  0  0  0
 29 30  1  0  0  0
 29 39  1  0  0  0
 30 31  1  0  0  0
 30 36  1  0  0  0
 30 38  1  0  0  0
 31 32  1  0  0  0
 32 33  1  0  0  0
 32 34  1  0  0  0
 32 35  1  0  0  0
 36 37  2  0  0  0
 44 45  1  0  0  0
M  END
> <# Confs.>
25

> <Pharmacophore Match>
(1YET) [A] GDM275

> <Matching Features>
||||HBA:495067246627921590|HBA:495067385280122077|HBA:495067408768422079|HBA:495067414144822081

> <Relative Pharmacophore-Fit Score>
0.49

> <Score>
0.49277958

> <Source Database>
conformers.ldb

> <Active/Decoy>
unknown

> <Mol. Index>
47

$$$$
39
XX    ILIB11232304573D

 61 61  0  0  1  0              1 V2000
   42.4385  -48.1461   65.4389 O   0  0  0  0  0
   43.4174  -47.1082   65.6328 C   0  0  0  0  0
   43.5743  -46.2950   64.3052 C   0  0  0  0  0
   44.5684  -45.3113   64.5409 O   0  0  0  0  0
   45.2955  -44.9742   63.3676 C   0  0  0  0  0
   46.0395  -44.2187   63.6333 H   0  0  0  0  0
   44.6350  -44.5554   62.6032 H   0  0  0  0  0
   45.8177  -45.8520   62.9757 H   0  0  0  0  0
   42.2896  -45.5803   63.8016 C   0  0  0  0  0
   41.7558  -44.7902   64.8715 O   0  0  0  0  0
   42.4663  -44.2026   65.1805 H   0  0  0  0  0
   41.1516  -46.4839   63.2888 C   0  0  0  0  0
   41.6034  -47.4911   62.3353 N   0  0  0  0  0
   42.2184  -48.1561   62.8007 H   0  0  0  0  0
   42.1625  -47.0511   61.6050 H   0  0  0  0  0
   40.0763  -45.6859   62.5399 C   0  0  0  0  0
   38.6970  -46.3368   62.4258 C   0  0  0  0  0
   38.2612  -46.1950   61.0384 N   0  0  0  0  0
   38.1640  -45.2094   60.7953 H   0  0  0  0  0
   37.3399  -46.6151   60.9219 H   0  0  0  0  0
   37.7945  -45.6298   63.3994 C   0  0  0  0  0
   37.2910  -46.0716   64.5738 C   0  0  0  0  0
   37.5418  -47.4288   65.0581 C   0  0  0  0  0
   37.4575  -47.8299   66.3364 C   0  0  0  0  0
   37.6958  -49.2421   66.8090 C   0  0  0  0  0
   38.8624  -49.4522   67.8140 C   0  0  0  0  0
   39.3406  -48.2119   68.4229 N   0  0  0  0  0
   38.5779  -47.7575   68.9230 H   0  0  0  0  0
   40.0531  -48.4227   69.1201 H   0  0  0  0  0
   40.0406  -50.3259   67.3072 C   0  0  0  0  0
   39.4912  -51.5958   66.9196 O   0  0  0  0  0
   40.2346  -52.1899   66.7213 H   0  0  0  0  0
   40.9242  -49.8144   66.1541 C   0  0  0  0  0
   40.1299  -49.4151   65.0585 O   0  0  0  0  0
   40.7199  -49.2950   64.2953 H   0  0  0  0  0
   41.8896  -48.7074   66.5519 C   0  0  0  0  0
   42.1761  -48.4147   67.7049 O   0  0  0  0  0
   41.5474  -50.6498   65.8080 H   0  0  0  0  0
   40.6884  -50.5403   68.1676 H   0  0  0  0  0
   38.4187  -50.0383   68.6310 H   0  0  0  0  0
   36.7679  -49.5443   67.3139 H   0  0  0  0  0
   37.7865  -49.9235   65.9545 H   0  0  0  0  0
   37.1771  -47.1200   67.1107 H   0  0  0  0  0
   37.8205  -48.1720   64.3174 H   0  0  0  0  0
   36.4923  -45.2465   65.3324 N   0  0  0  0  0
   36.0166  -45.5992   66.1525 H   0  0  0  0  0
   36.2917  -44.3072   65.0108 H   0  0  0  0  0
   37.5448  -44.6055   63.1130 H   0  0  0  0  0
   38.7927  -47.4055   62.6254 H   0  0  0  0  0
   40.3028  -44.5719   62.0636 O   0  0  0  0  0
   40.6452  -46.9487   64.1395 H   0  0  0  0  0
   42.5695  -44.8702   63.0148 H   0  0  0  0  0
   43.9422  -46.9741   63.5258 H   0  0  0  0  0
   44.7299  -47.7376   66.0442 C   0  0  0  0  0
   45.2406  -48.6858   64.9787 C   0  0  0  0  0
   46.5969  -48.7393   64.9790 O   0  0  0  0  0
   46.9390  -49.3395   64.2837 H   0  0  0  0  0
   44.5405  -49.3057   64.1922 O   0  0  0  0  0
   45.5079  -46.9661   66.1787 H   0  0  0  0  0
   44.6340  -48.2936   66.9719 H   0  0  0  0  0
   43.0643  -46.4204   66.4125 H   0  0  0  0  0
  1  2  1  0  0  0
  1 36  1  0  0  0
  2  3  1  0  0  0
  2 54  1  0  0  0
  2 61  1  0  0  0
  3  4  1  0  0  0
  3  9  1  0  0  0
  3 53  1  0  0  0
  4  5  1  0  0  0
  5  6  1  0  0  0
  5  7  1  0  0  0
  5  8  1  0  0  0
  9 10  1  0  0  0
  9 12  1  0  0  0
  9 52  1  0  0  0
 10 11  1  0  0  0
 12 13  1  0  0  0
 12 16  1  0  0  0
 12 51  1  0  0  0
 13 14  1  0  0  0
 13 15  1  0  0  0
 16 17  1  0  0  0
 16 50  2  0  0  0
 17 18  1  0  0  0
 17 21  1  0  0  0
 17 49  1  0  0  0
 18 19  1  0  0  0
 18 20  1  0  0  0
 21 22  2  0  0  0
 21 48  1  0  0  0
 22 23  1  0  0  0
 22 45  1  0  0  0
 23 24  2  0  0  0
 23 44  1  0  0  0
 24 25  1  0  0  0
 24 43  1  0  0  0
 25 26  1  0  0  0
 25 41  1  0  0  0
 25 42  1  0  0  0
 26 27  1  0  0  0
 26 30  1  0  0  0
 26 40  1  0  0  0
 27 28  1  0  0  0
 27 29  1  0  0  0
 30 31  1  0  0  0
 30 33  1  0  0  0
 30 39  1  0  0  0
 31 32  1  0  0  0
 33 34  1  0  0  0
 33 36  1  0  0  0
 33 38  1  0  0  0
 34 35  1  0  0  0
 36 37  2  0  0  0
 45 46  1  0  0  0
 45 47  1  0  0  0
 54 55  1  0  0  0
 54 59  1  0  0  0
 54 60  1  0  0  0
 55 56  1  0  0  0
 55 58  2  0  0  0
 56 57  1  0  0  0
M  END
> <# Confs.>
25

> <Pharmacophore Match>
(1YET) [A] GDM275

> <Matching Features>
||||HBA:495067246627921590|HBA:495067385280122077|HBA:495067408768422079|HBA:495067414144822081

> <Relative Pharmacophore-Fit Score>
0.49

> <Score>
0.4880783

> <Source Database>
conformers.ldb

> <Active/Decoy>
unknown

> <Mol. Index>
50

$$$$
62
XX    ILIB11232304573D

 43 42  0  0  1  0              1 V2000
   40.1278  -48.2589   65.8869 C   0  0  0  0  0
   40.1527  -49.3036   66.9700 C   0  0  0  0  0
   41.3998  -49.8018   67.1764 O   0  0  0  0  0
   42.0998  -49.4163   66.6060 H   0  0  0  0  0
   39.1775  -49.6666   67.6160 O   0  0  0  0  0
   39.6280  -46.9092   66.4136 C   0  0  0  0  0
   40.5139  -46.4839   67.4544 O   0  0  0  0  0
   41.3809  -46.3113   67.0493 H   0  0  0  0  0
   39.4980  -45.7730   65.3903 C   0  0  0  0  0
   40.8003  -45.3616   64.6664 C   0  0  0  0  0
   41.2847  -46.5040   63.9682 O   0  0  0  0  0
   40.6422  -46.7116   63.2680 H   0  0  0  0  0
   40.6979  -44.1912   63.6865 C   0  0  0  0  0
   39.7656  -44.5375   62.6719 O   0  0  0  0  0
   39.0924  -43.4086   62.1329 C   0  0  0  0  0
   38.5008  -42.9120   62.9079 H   0  0  0  0  0
   39.8090  -42.7061   61.6965 H   0  0  0  0  0
   38.4171  -43.7540   61.3449 H   0  0  0  0  0
   42.0562  -43.8013   63.0612 C   0  0  0  0  0
   43.1142  -43.3854   64.0785 C   0  0  0  0  0
   42.7030  -42.2237   64.8669 N   0  0  0  0  0
   41.8448  -42.4354   65.3732 H   0  0  0  0  0
   43.4072  -42.0270   65.5772 H   0  0  0  0  0
   44.4074  -43.0468   63.3861 C   0  0  0  0  0
   45.3751  -42.6707   64.2615 O   0  0  0  0  0
   45.1079  -42.6760   65.2051 H   0  0  0  0  0
   44.5921  -43.1119   62.1776 O   0  0  0  0  0
   43.3152  -44.2124   64.7702 H   0  0  0  0  0
   42.4148  -44.6662   62.4866 H   0  0  0  0  0
   41.9030  -42.9987   62.3282 H   0  0  0  0  0
   40.3024  -43.3178   64.2378 H   0  0  0  0  0
   41.5534  -45.1333   65.4384 H   0  0  0  0  0
   38.8655  -44.5421   66.0668 C   0  0  0  0  0
   38.6954  -43.7452   65.3349 H   0  0  0  0  0
   39.4989  -44.1385   66.8624 H   0  0  0  0  0
   37.8958  -44.7996   66.5048 H   0  0  0  0  0
   38.8069  -46.1113   64.6148 H   0  0  0  0  0
   38.6537  -47.0650   66.8942 H   0  0  0  0  0
   39.2838  -48.7737   64.7232 C   0  0  0  0  0
   38.2478  -48.9633   65.0220 H   0  0  0  0  0
   39.6886  -49.7179   64.3410 H   0  0  0  0  0
   39.2757  -48.0521   63.9002 H   0  0  0  0  0
   41.1560  -48.1283   65.5257 H   0  0  0  0  0
  1  2  1  0  0  0
  1  6  1  0  0  0
  1 39  1  0  0  0
  1 43  1  0  0  0
  2  3  1  0  0  0
  2  5  2  0  0  0
  3  4  1  0  0  0
  6  7  1  0  0  0
  6  9  1  0  0  0
  6 38  1  0  0  0
  7  8  1  0  0  0
  9 10  1  0  0  0
  9 33  1  0  0  0
  9 37  1  0  0  0
 10 11  1  0  0  0
 10 13  1  0  0  0
 10 32  1  0  0  0
 11 12  1  0  0  0
 13 14  1  0  0  0
 13 19  1  0  0  0
 13 31  1  0  0  0
 14 15  1  0  0  0
 15 16  1  0  0  0
 15 17  1  0  0  0
 15 18  1  0  0  0
 19 20  1  0  0  0
 19 29  1  0  0  0
 19 30  1  0  0  0
 20 21  1  0  0  0
 20 24  1  0  0  0
 20 28  1  0  0  0
 21 22  1  0  0  0
 21 23  1  0  0  0
 24 25  1  0  0  0
 24 27  2  0  0  0
 25 26  1  0  0  0
 33 34  1  0  0  0
 33 35  1  0  0  0
 33 36  1  0  0  0
 39 40  1  0  0  0
 39 41  1  0  0  0
 39 42  1  0  0  0
M  END
> <# Confs.>
25

> <Pharmacophore Match>
(1YET) [A] GDM275

> <Matching Features>
H:495067227192821472|||H:495067340233021826|HBA:495067246627921590|HBA:495067385280122077|HBA:495067408768422079|HBA:495067414144822081

> <Relative Pharmacophore-Fit Score>
0.72

> <Score>
0.72472537

> <Source Database>
conformers.ldb

> <Active/Decoy>
unknown

> <Mol. Index>
49

$$$$
