3
XX    ILIB11282304113D

 77 77  0  0  1  0              1 V2000
   42.0113  -48.8974   66.7096 C   0  0  0  0  0
   42.2522  -49.6541   65.3898 C   0  0  0  0  0
   40.9520  -50.1879   64.7434 C   0  0  0  0  0
   39.7931  -50.5976   65.6296 C   0  0  0  0  0
   39.8625  -52.0442   65.7953 N   0  0  0  0  0
   39.7983  -52.4956   64.8838 H   0  0  0  0  0
   39.0514  -52.3645   66.3216 H   0  0  0  0  0
   39.7720  -49.9597   66.9965 C   0  0  0  0  0
   40.5743  -48.6889   67.1351 C   0  0  0  0  0
   40.5190  -48.2149   68.4603 O   0  0  0  0  0
   40.9184  -48.8877   69.0368 H   0  0  0  0  0
   40.1264  -47.9239   66.4908 H   0  0  0  0  0
   39.0904  -50.4056   67.9192 O   0  0  0  0  0
   38.8646  -50.3064   65.1232 H   0  0  0  0  0
   40.8727  -50.3729   63.5242 O   0  0  0  0  0
   42.9409  -48.7023   64.4011 C   0  0  0  0  0
   44.1850  -48.2797   64.9685 O   0  0  0  0  0
   43.9904  -47.7208   65.7396 H   0  0  0  0  0
   42.1557  -47.4598   64.0118 C   0  0  0  0  0
   42.9176  -46.5863   63.0348 C   0  0  0  0  0
   42.2735  -45.3038   62.5438 C   0  0  0  0  0
   42.6029  -44.1023   63.4276 C   0  0  0  0  0
   42.0125  -42.7673   63.0451 C   0  0  0  0  0
   40.5006  -42.7756   63.0421 C   0  0  0  0  0
   39.7507  -42.4457   64.3101 C   0  0  0  0  0
   38.3245  -42.5418   64.0149 N   0  0  0  0  0
   38.0923  -41.9559   63.2142 H   0  0  0  0  0
   38.0762  -43.4976   63.7652 H   0  0  0  0  0
   40.1627  -43.3678   65.4588 C   0  0  0  0  0
   39.8690  -44.7183   65.0854 O   0  0  0  0  0
   38.9024  -44.8156   65.0376 H   0  0  0  0  0
   39.4976  -43.0968   66.8115 C   0  0  0  0  0
   39.9159  -44.0305   67.9663 C   0  0  0  0  0
   39.2062  -43.6410   69.1462 O   0  0  0  0  0
   39.5311  -42.7659   69.4185 H   0  0  0  0  0
   41.4106  -44.0595   68.3005 C   0  0  0  0  0
   41.7831  -44.9937   69.4488 C   0  0  0  0  0
   43.2787  -44.9689   69.7221 C   0  0  0  0  0
   43.5254  -45.6404   70.5498 H   0  0  0  0  0
   43.8433  -45.2950   68.8406 H   0  0  0  0  0
   43.6111  -43.9606   69.9893 H   0  0  0  0  0
   41.4781  -46.0190   69.2087 H   0  0  0  0  0
   41.2455  -44.7011   70.3577 H   0  0  0  0  0
   41.7666  -43.0429   68.5112 H   0  0  0  0  0
   41.9592  -44.3775   67.4055 H   0  0  0  0  0
   39.5851  -45.0497   67.7365 H   0  0  0  0  0
   39.6709  -41.6289   67.2145 C   0  0  0  0  0
   40.7193  -41.3741   67.3958 H   0  0  0  0  0
   39.2941  -40.9657   66.4296 H   0  0  0  0  0
   39.1079  -41.4113   68.1290 H   0  0  0  0  0
   38.4230  -43.2761   66.6571 H   0  0  0  0  0
   41.2504  -43.3168   65.5818 H   0  0  0  0  0
   39.9941  -41.4074   64.5686 H   0  0  0  0  0
   39.8786  -43.1034   62.0200 O   0  0  0  0  0
   42.5719  -42.2730   61.7089 C   0  0  0  0  0
   44.0846  -42.1350   61.7526 C   0  0  0  0  0
   44.4634  -41.7952   60.7832 H   0  0  0  0  0
   44.3909  -41.4063   62.5104 H   0  0  0  0  0
   44.5592  -43.0933   61.9859 H   0  0  0  0  0
   42.1294  -41.3037   61.4479 H   0  0  0  0  0
   42.2964  -42.9784   60.9159 H   0  0  0  0  0
   42.3098  -42.0350   63.8254 H   0  0  0  0  0
   43.3460  -44.2140   64.3918 O   0  0  0  0  0
   42.6033  -45.0910   61.5217 H   0  0  0  0  0
   41.1893  -45.4491   62.4920 H   0  0  0  0  0
   44.0229  -46.9254   62.6047 O   0  0  0  0  0
   41.1897  -47.7339   63.5701 H   0  0  0  0  0
   41.9168  -46.8601   64.8975 H   0  0  0  0  0
   43.1961  -49.2597   63.4923 H   0  0  0  0  0
   43.1326  -50.8520   65.7293 C   0  0  0  0  0
   43.4396  -51.6804   64.4931 C   0  0  0  0  0
   44.0770  -52.5322   64.7558 H   0  0  0  0  0
   42.5211  -52.0720   64.0441 H   0  0  0  0  0
   43.9635  -51.0847   63.7402 H   0  0  0  0  0
   42.6316  -51.4846   66.4721 H   0  0  0  0  0
   44.0725  -50.5086   66.1770 H   0  0  0  0  0
   42.9437  -48.4542   67.3818 O   0  0  0  0  0
  1  2  1  0  0  0
  1 77  2  0  0  0
  1  9  1  0  0  0
  2  3  1  0  0  0
  2 16  1  0  0  0
  2 70  1  0  0  0
  3  4  1  0  0  0
  3 15  2  0  0  0
  4  5  1  0  0  0
  4  8  1  0  0  0
  4 14  1  0  0  0
  5  6  1  0  0  0
  5  7  1  0  0  0
  8  9  1  0  0  0
  8 13  2  0  0  0
  9 10  1  0  0  0
  9 12  1  0  0  0
 10 11  1  0  0  0
 16 17  1  0  0  0
 16 19  1  0  0  0
 16 69  1  0  0  0
 17 18  1  0  0  0
 19 20  1  0  0  0
 19 67  1  0  0  0
 19 68  1  0  0  0
 20 21  1  0  0  0
 20 66  2  0  0  0
 21 22  1  0  0  0
 21 64  1  0  0  0
 21 65  1  0  0  0
 22 23  1  0  0  0
 22 63  2  0  0  0
 23 24  1  0  0  0
 23 55  1  0  0  0
 23 62  1  0  0  0
 24 25  1  0  0  0
 24 54  2  0  0  0
 25 26  1  0  0  0
 25 29  1  0  0  0
 25 53  1  0  0  0
 26 27  1  0  0  0
 26 28  1  0  0  0
 29 30  1  0  0  0
 29 32  1  0  0  0
 29 52  1  0  0  0
 30 31  1  0  0  0
 32 33  1  0  0  0
 32 47  1  0  0  0
 32 51  1  0  0  0
 33 34  1  0  0  0
 33 36  1  0  0  0
 33 46  1  0  0  0
 34 35  1  0  0  0
 36 37  1  0  0  0
 36 44  1  0  0  0
 36 45  1  0  0  0
 37 38  1  0  0  0
 37 42  1  0  0  0
 37 43  1  0  0  0
 38 39  1  0  0  0
 38 40  1  0  0  0
 38 41  1  0  0  0
 47 48  1  0  0  0
 47 49  1  0  0  0
 47 50  1  0  0  0
 55 56  1  0  0  0
 55 60  1  0  0  0
 55 61  1  0  0  0
 56 57  1  0  0  0
 56 58  1  0  0  0
 56 59  1  0  0  0
 70 71  1  0  0  0
 70 75  1  0  0  0
 70 76  1  0  0  0
 71 72  1  0  0  0
 71 73  1  0  0  0
 71 74  1  0  0  0
M  END
> <# Confs.>
25

> <Pharmacophore Match>
(1YET) [A] GDM275

> <Matching Features>
||||HBA:495067246627921590|HBA:495067385280122077|HBA:495067408768422079|HBA:495067414144822081

> <Relative Pharmacophore-Fit Score>
0.50

> <Score>
0.49998853

> <Source Database>
conformers.ldb

> <Active/Decoy>
unknown

> <Mol. Index>
9

$$$$
19
XX    ILIB11282304113D

 83 83  0  0  1  0              1 V2000
   41.7493  -50.4202   66.4007 C   0  0  0  0  0
   42.2971  -49.7405   67.6548 C   0  0  0  0  0
   42.0681  -50.1797   68.7817 O   0  0  0  0  0
   43.1738  -48.5088   67.4441 C   0  0  0  0  0
   43.8234  -48.1497   68.6509 O   0  0  0  0  0
   45.0861  -48.7881   68.7993 C   0  0  0  0  0
   44.9629  -49.8749   68.8241 H   0  0  0  0  0
   45.5243  -48.4636   69.7444 H   0  0  0  0  0
   45.7606  -48.5034   67.9858 H   0  0  0  0  0
   42.3604  -47.2784   67.0795 C   0  0  0  0  0
   41.5222  -46.8198   67.8578 O   0  0  0  0  0
   42.6611  -46.6032   65.7322 C   0  0  0  0  0
   41.3292  -46.2222   65.0312 C   0  0  0  0  0
   40.6235  -47.4554   64.7193 O   0  0  0  0  0
   39.4644  -47.7415   65.3784 C   0  0  0  0  0
   38.9321  -47.0476   66.2344 O   0  0  0  0  0
   38.8948  -49.0535   64.8554 C   0  0  0  0  0
   38.2948  -49.9260   65.9755 C   0  0  0  0  0
   37.1595  -49.2645   66.5456 O   0  0  0  0  0
   37.4806  -48.4857   67.0308 H   0  0  0  0  0
   39.2525  -50.3319   67.1165 C   0  0  0  0  0
   38.4922  -51.1455   68.0265 O   0  0  0  0  0
   37.7346  -50.6143   68.3279 H   0  0  0  0  0
   40.4502  -51.1940   66.6820 C   0  0  0  0  0
   40.6529  -51.9439   67.4573 H   0  0  0  0  0
   40.1688  -51.7729   65.7927 H   0  0  0  0  0
   39.5699  -49.4567   67.6909 H   0  0  0  0  0
   37.8922  -50.8417   65.5242 H   0  0  0  0  0
   37.8593  -48.7161   63.7823 C   0  0  0  0  0
   37.0541  -48.0867   64.1772 H   0  0  0  0  0
   38.3244  -48.1654   62.9567 H   0  0  0  0  0
   37.4118  -49.6277   63.3708 H   0  0  0  0  0
   39.7014  -49.6214   64.3777 H   0  0  0  0  0
   41.5249  -45.4677   63.7343 C   0  0  0  0  0
   42.2307  -46.1263   62.7634 N   0  0  0  0  0
   42.5872  -47.0546   62.9497 H   0  0  0  0  0
   42.4250  -45.6863   61.8740 H   0  0  0  0  0
   41.0125  -44.2197   63.6212 C   0  0  0  0  0
   41.1089  -43.3201   62.4179 C   0  0  0  0  0
   40.4793  -43.9561   61.2861 O   0  0  0  0  0
   39.5799  -44.2152   61.5495 H   0  0  0  0  0
   42.5148  -42.8854   62.0071 C   0  0  0  0  0
   42.4492  -42.0324   60.8528 O   0  0  0  0  0
   41.9944  -41.2194   61.0901 H   0  0  0  0  0
   43.2756  -42.1957   63.1381 C   0  0  0  0  0
   44.6906  -41.7532   62.7394 C   0  0  0  0  0
   45.3388  -41.1198   63.8449 O   0  0  0  0  0
   45.4705  -41.7796   64.5455 H   0  0  0  0  0
   45.5395  -42.9069   62.2042 C   0  0  0  0  0
   45.6444  -43.8876   63.2217 O   0  0  0  0  0
   45.7797  -45.2021   62.6965 C   0  0  0  0  0
   44.9004  -45.4657   62.0994 H   0  0  0  0  0
   45.8540  -45.9003   63.5340 H   0  0  0  0  0
   46.6853  -45.2854   62.0900 H   0  0  0  0  0
   46.9393  -42.4272   61.8367 C   0  0  0  0  0
   46.9106  -41.4662   60.8813 O   0  0  0  0  0
   47.8116  -41.1739   60.6277 H   0  0  0  0  0
   47.9702  -42.8743   62.3200 O   0  0  0  0  0
   45.0600  -43.3123   61.3038 H   0  0  0  0  0
   44.6063  -40.9901   61.9546 H   0  0  0  0  0
   42.4449  -41.0166   63.6694 C   0  0  0  0  0
   41.4583  -41.3613   63.9979 H   0  0  0  0  0
   42.2930  -40.2472   62.9054 H   0  0  0  0  0
   42.9286  -40.5469   64.5309 H   0  0  0  0  0
   43.3728  -42.9246   63.9540 H   0  0  0  0  0
   43.0751  -43.7796   61.6923 H   0  0  0  0  0
   40.5138  -42.4156   62.6045 H   0  0  0  0  0
   40.4706  -43.8080   64.4642 H   0  0  0  0  0
   40.7167  -45.6072   65.7033 H   0  0  0  0  0
   43.5699  -45.4043   65.9871 C   0  0  0  0  0
   42.9083  -44.3941   66.9115 C   0  0  0  0  0
   41.9589  -44.0433   66.4952 H   0  0  0  0  0
   42.7106  -44.8332   67.8939 H   0  0  0  0  0
   43.5590  -43.5263   67.0521 H   0  0  0  0  0
   44.5152  -45.7337   66.4331 H   0  0  0  0  0
   43.8174  -44.9116   65.0384 H   0  0  0  0  0
   43.1805  -47.3354   65.1008 H   0  0  0  0  0
   43.9176  -48.7120   66.6665 H   0  0  0  0  0
   42.8164  -51.3704   65.8581 C   0  0  0  0  0
   43.0541  -52.1557   66.5835 H   0  0  0  0  0
   43.7462  -50.8369   65.6360 H   0  0  0  0  0
   42.4764  -51.8489   64.9343 H   0  0  0  0  0
   41.5621  -49.6514   65.6512 H   0  0  0  0  0
  1  2  1  0  0  0
  1 24  1  0  0  0
  1 79  1  0  0  0
  1 83  1  0  0  0
  2  3  2  0  0  0
  2  4  1  0  0  0
  4  5  1  0  0  0
  4 10  1  0  0  0
  4 78  1  0  0  0
  5  6  1  0  0  0
  6  7  1  0  0  0
  6  8  1  0  0  0
  6  9  1  0  0  0
 10 11  2  0  0  0
 10 12  1  0  0  0
 12 13  1  0  0  0
 12 70  1  0  0  0
 12 77  1  0  0  0
 13 14  1  0  0  0
 13 34  1  0  0  0
 13 69  1  0  0  0
 14 15  1  0  0  0
 15 16  2  0  0  0
 15 17  1  0  0  0
 17 18  1  0  0  0
 17 29  1  0  0  0
 17 33  1  0  0  0
 18 19  1  0  0  0
 18 21  1  0  0  0
 18 28  1  0  0  0
 19 20  1  0  0  0
 21 22  1  0  0  0
 21 24  1  0  0  0
 21 27  1  0  0  0
 22 23  1  0  0  0
 24 25  1  0  0  0
 24 26  1  0  0  0
 29 30  1  0  0  0
 29 31  1  0  0  0
 29 32  1  0  0  0
 34 35  1  0  0  0
 34 38  2  0  0  0
 35 36  1  0  0  0
 35 37  1  0  0  0
 38 39  1  0  0  0
 38 68  1  0  0  0
 39 40  1  0  0  0
 39 42  1  0  0  0
 39 67  1  0  0  0
 40 41  1  0  0  0
 42 43  1  0  0  0
 42 45  1  0  0  0
 42 66  1  0  0  0
 43 44  1  0  0  0
 45 46  1  0  0  0
 45 61  1  0  0  0
 45 65  1  0  0  0
 46 47  1  0  0  0
 46 49  1  0  0  0
 46 60  1  0  0  0
 47 48  1  0  0  0
 49 50  1  0  0  0
 49 55  1  0  0  0
 49 59  1  0  0  0
 50 51  1  0  0  0
 51 52  1  0  0  0
 51 53  1  0  0  0
 51 54  1  0  0  0
 55 56  1  0  0  0
 55 58  2  0  0  0
 56 57  1  0  0  0
 61 62  1  0  0  0
 61 63  1  0  0  0
 61 64  1  0  0  0
 70 71  1  0  0  0
 70 75  1  0  0  0
 70 76  1  0  0  0
 71 72  1  0  0  0
 71 73  1  0  0  0
 71 74  1  0  0  0
 79 80  1  0  0  0
 79 81  1  0  0  0
 79 82  1  0  0  0
M  END
> <# Confs.>
25

> <Pharmacophore Match>
(1YET) [A] GDM275

> <Matching Features>
|H:495067279551021655|H:495067334351321757||HBA:495067246627921590|HBA:495067385280122077|HBA:495067408768422079|HBA:495067414144822081

> <Relative Pharmacophore-Fit Score>
0.73

> <Score>
0.7297983

> <Source Database>
conformers.ldb

> <Active/Decoy>
unknown

> <Mol. Index>
14

$$$$
30
XX    ILIB11282304113D

 59 59  0  0  1  0              1 V2000
   41.0853  -48.1049   68.8812 C   0  0  0  0  0
   42.4188  -48.4647   68.2157 C   0  0  0  0  0
   43.4888  -47.3866   68.0148 C   0  0  0  0  0
   43.6374  -47.1851   66.5261 C   0  0  0  0  0
   44.6777  -47.5525   65.7592 C   0  0  0  0  0
   45.9065  -48.2990   66.1623 C   0  0  0  0  0
   45.7981  -48.8065   67.1233 H   0  0  0  0  0
   46.7621  -47.6193   66.2291 H   0  0  0  0  0
   46.1447  -49.0734   65.4241 H   0  0  0  0  0
   44.5647  -47.2142   64.3110 C   0  0  0  0  0
   44.1859  -48.0841   63.5244 O   0  0  0  0  0
   44.8673  -45.8025   63.8334 C   0  0  0  0  0
   45.9020  -45.1929   64.6665 N   0  0  0  0  0
   46.1703  -44.2905   64.2732 H   0  0  0  0  0
   45.5360  -44.9954   65.5966 H   0  0  0  0  0
   43.6438  -44.8970   63.8085 C   0  0  0  0  0
   43.4580  -44.0201   64.6553 O   0  0  0  0  0
   42.6267  -45.1512   62.6959 C   0  0  0  0  0
   42.4798  -43.9000   61.9627 N   0  0  0  0  0
   42.3113  -43.1316   62.6114 H   0  0  0  0  0
   43.3565  -43.6768   61.4906 H   0  0  0  0  0
   41.3942  -45.7327   63.3419 C   0  0  0  0  0
   40.1208  -45.2935   63.3333 C   0  0  0  0  0
   39.6877  -44.1886   62.6340 O   0  0  0  0  0
   40.4329  -43.8326   62.1240 H   0  0  0  0  0
   39.0496  -46.0218   64.0709 C   0  0  0  0  0
   37.8644  -45.8309   63.8379 O   0  0  0  0  0
   39.5809  -46.8465   65.0160 O   0  0  0  0  0
   38.7215  -47.5822   65.7831 C   0  0  0  0  0
   37.4997  -47.6086   65.6991 O   0  0  0  0  0
   39.5278  -48.3996   66.7877 C   0  0  0  0  0
   38.6695  -49.3560   67.3776 O   0  0  0  0  0
   38.6439  -50.5842   66.6619 C   0  0  0  0  0
   39.6463  -51.0181   66.5982 H   0  0  0  0  0
   38.2354  -50.4308   65.6591 H   0  0  0  0  0
   37.9946  -51.2806   67.1994 H   0  0  0  0  0
   40.1009  -47.4687   67.8752 C   0  0  0  0  0
   39.0237  -46.8746   68.6087 O   0  0  0  0  0
   38.4430  -47.5914   68.9151 H   0  0  0  0  0
   40.6125  -46.6362   67.3819 H   0  0  0  0  0
   40.3400  -48.9095   66.2544 H   0  0  0  0  0
   41.6114  -46.6557   63.8787 H   0  0  0  0  0
   43.0260  -45.8996   62.0032 H   0  0  0  0  0
   45.2751  -45.8692   62.8186 H   0  0  0  0  0
   42.7992  -46.6703   66.0597 H   0  0  0  0  0
   43.2942  -46.0625   68.7367 C   0  0  0  0  0
   44.3855  -45.0287   68.5219 C   0  0  0  0  0
   44.1755  -44.1335   69.1189 H   0  0  0  0  0
   45.3674  -45.4104   68.8405 H   0  0  0  0  0
   44.4529  -44.7290   67.4789 H   0  0  0  0  0
   43.2092  -46.2615   69.8227 H   0  0  0  0  0
   42.3354  -45.6313   68.4310 H   0  0  0  0  0
   44.4104  -47.8367   68.4358 H   0  0  0  0  0
   42.6118  -49.6063   67.7841 O   0  0  0  0  0
   40.5425  -49.3178   69.6444 C   0  0  0  0  0
   39.5952  -49.0884   70.1394 H   0  0  0  0  0
   41.2548  -49.6218   70.4202 H   0  0  0  0  0
   40.3982  -50.1873   68.9967 H   0  0  0  0  0
   41.2872  -47.3672   69.6649 H   0  0  0  0  0
  1  2  1  0  0  0
  1 37  1  0  0  0
  1 55  1  0  0  0
  1 59  1  0  0  0
  2  3  1  0  0  0
  2 54  2  0  0  0
  3  4  1  0  0  0
  3 46  1  0  0  0
  3 53  1  0  0  0
  4  5  2  0  0  0
  4 45  1  0  0  0
  5  6  1  0  0  0
  5 10  1  0  0  0
  6  7  1  0  0  0
  6  8  1  0  0  0
  6  9  1  0  0  0
 10 11  2  0  0  0
 10 12  1  0  0  0
 12 13  1  0  0  0
 12 16  1  0  0  0
 12 44  1  0  0  0
 13 14  1  0  0  0
 13 15  1  0  0  0
 16 17  2  0  0  0
 16 18  1  0  0  0
 18 19  1  0  0  0
 18 22  1  0  0  0
 18 43  1  0  0  0
 19 20  1  0  0  0
 19 21  1  0  0  0
 22 23  2  0  0  0
 22 42  1  0  0  0
 23 24  1  0  0  0
 23 26  1  0  0  0
 24 25  1  0  0  0
 26 27  2  0  0  0
 26 28  1  0  0  0
 28 29  1  0  0  0
 29 30  2  0  0  0
 29 31  1  0  0  0
 31 32  1  0  0  0
 31 37  1  0  0  0
 31 41  1  0  0  0
 32 33  1  0  0  0
 33 34  1  0  0  0
 33 35  1  0  0  0
 33 36  1  0  0  0
 37 38  1  0  0  0
 37 40  1  0  0  0
 38 39  1  0  0  0
 46 47  1  0  0  0
 46 51  1  0  0  0
 46 52  1  0  0  0
 47 48  1  0  0  0
 47 49  1  0  0  0
 47 50  1  0  0  0
 55 56  1  0  0  0
 55 57  1  0  0  0
 55 58  1  0  0  0
M  END
> <# Confs.>
25

> <Pharmacophore Match>
(1YET) [A] GDM275

> <Matching Features>
||||HBA:495067246627921590|HBA:495067385280122077|HBA:495067408768422079|HBA:495067414144822081

> <Relative Pharmacophore-Fit Score>
0.50

> <Score>
0.4960048

> <Source Database>
conformers.ldb

> <Active/Decoy>
unknown

> <Mol. Index>
38

$$$$
60
XX    ILIB11282304113D

 58 58  0  0  1  0              1 V2000
   41.0208  -47.7484   68.5339 C   0  0  0  0  0
   40.8102  -46.4128   68.6265 O   0  0  0  0  0
   41.4893  -45.9719   69.1815 H   0  0  0  0  0
   41.9501  -48.3296   69.0779 O   0  0  0  0  0
   40.0031  -48.4170   67.6555 C   0  0  0  0  0
   39.8189  -49.7382   68.1156 O   0  0  0  0  0
   40.6459  -50.2292   67.9723 H   0  0  0  0  0
   40.3477  -48.4121   66.1848 C   0  0  0  0  0
   40.4931  -49.4775   65.5764 O   0  0  0  0  0
   40.5298  -47.0814   65.4981 C   0  0  0  0  0
   41.5028  -47.2732   64.4662 O   0  0  0  0  0
   42.8100  -47.3338   64.8067 C   0  0  0  0  0
   43.6691  -47.6392   63.5905 C   0  0  0  0  0
   43.4211  -46.6383   62.4376 C   0  0  0  0  0
   44.1922  -47.0335   61.2946 O   0  0  0  0  0
   45.1317  -47.0005   61.5465 H   0  0  0  0  0
   43.7702  -45.1622   62.7252 C   0  0  0  0  0
   44.3822  -44.9784   63.9863 O   0  0  0  0  0
   44.7195  -44.0682   64.0217 H   0  0  0  0  0
   42.5487  -44.2540   62.5966 C   0  0  0  0  0
   41.5535  -44.1825   63.7575 C   0  0  0  0  0
   41.4342  -42.8177   64.1162 O   0  0  0  0  0
   42.3768  -42.4328   65.1093 C   0  0  0  0  0
   42.2207  -43.0085   66.0260 H   0  0  0  0  0
   42.2261  -41.3729   65.3324 H   0  0  0  0  0
   43.3995  -42.5709   64.7463 H   0  0  0  0  0
   40.1814  -44.7397   63.3144 C   0  0  0  0  0
   39.5770  -43.7711   62.4446 O   0  0  0  0  0
   38.7826  -44.1760   62.0584 H   0  0  0  0  0
   39.1604  -45.0906   64.4395 C   0  0  0  0  0
   39.2144  -46.5864   64.8824 C   0  0  0  0  0
   38.1569  -46.8173   65.8207 O   0  0  0  0  0
   37.3199  -46.5874   65.3821 H   0  0  0  0  0
   38.9937  -47.2026   64.0009 H   0  0  0  0  0
   39.1574  -44.1377   65.6285 C   0  0  0  0  0
   38.8199  -42.7068   65.2189 C   0  0  0  0  0
   38.8203  -41.6101   66.6207 Cl  0  0  0  0  0
   39.5421  -42.3238   64.4929 H   0  0  0  0  0
   37.8240  -42.6643   64.7690 H   0  0  0  0  0
   40.1347  -44.1619   66.1294 H   0  0  0  0  0
   38.4252  -44.4811   66.3714 H   0  0  0  0  0
   38.1571  -44.9768   63.9981 H   0  0  0  0  0
   40.3346  -45.6326   62.6971 H   0  0  0  0  0
   41.9351  -44.7485   64.6089 H   0  0  0  0  0
   42.3720  -43.6007   61.5666 O   0  0  0  0  0
   44.4926  -44.8031   61.9805 H   0  0  0  0  0
   42.3804  -46.7130   62.1039 H   0  0  0  0  0
   43.4149  -49.0895   63.1986 C   0  0  0  0  0
   43.7749  -50.0603   64.3203 C   0  0  0  0  0
   43.4728  -51.7487   63.8440 Cl  0  0  0  0  0
   44.8301  -49.9734   64.5945 H   0  0  0  0  0
   43.1714  -49.8559   65.2082 H   0  0  0  0  0
   43.9823  -49.3382   62.2899 H   0  0  0  0  0
   42.3562  -49.2191   62.9372 H   0  0  0  0  0
   44.7177  -47.5598   63.9077 H   0  0  0  0  0
   43.2623  -47.2105   65.9414 O   0  0  0  0  0
   40.9009  -46.3513   66.2449 H   0  0  0  0  0
   39.0466  -47.8951   67.7630 H   0  0  0  0  0
  1  2  1  0  0  0
  1  4  2  0  0  0
  1  5  1  0  0  0
  2  3  1  0  0  0
  5  6  1  0  0  0
  5  8  1  0  0  0
  5 58  1  0  0  0
  6  7  1  0  0  0
  8  9  2  0  0  0
  8 10  1  0  0  0
 10 11  1  0  0  0
 10 31  1  0  0  0
 10 57  1  0  0  0
 11 12  1  0  0  0
 12 13  1  0  0  0
 12 56  2  0  0  0
 13 14  1  0  0  0
 13 48  1  0  0  0
 13 55  1  0  0  0
 14 15  1  0  0  0
 14 17  1  0  0  0
 14 47  1  0  0  0
 15 16  1  0  0  0
 17 18  1  0  0  0
 17 20  1  0  0  0
 17 46  1  0  0  0
 18 19  1  0  0  0
 20 21  1  0  0  0
 20 45  2  0  0  0
 21 22  1  0  0  0
 21 27  1  0  0  0
 21 44  1  0  0  0
 22 23  1  0  0  0
 23 24  1  0  0  0
 23 25  1  0  0  0
 23 26  1  0  0  0
 27 28  1  0  0  0
 27 30  1  0  0  0
 27 43  1  0  0  0
 28 29  1  0  0  0
 30 31  1  0  0  0
 30 35  1  0  0  0
 30 42  1  0  0  0
 31 32  1  0  0  0
 31 34  1  0  0  0
 32 33  1  0  0  0
 35 36  1  0  0  0
 35 40  1  0  0  0
 35 41  1  0  0  0
 36 37  1  0  0  0
 36 38  1  0  0  0
 36 39  1  0  0  0
 48 49  1  0  0  0
 48 53  1  0  0  0
 48 54  1  0  0  0
 49 50  1  0  0  0
 49 51  1  0  0  0
 49 52  1  0  0  0
M  END
> <# Confs.>
25

> <Pharmacophore Match>
(1YET) [A] GDM275

> <Matching Features>
||||HBA:495067246627921590|HBA:495067385280122077|HBA:495067408768422079|HBA:495067414144822081

> <Relative Pharmacophore-Fit Score>
0.49

> <Score>
0.49288648

> <Source Database>
conformers.ldb

> <Active/Decoy>
unknown

> <Mol. Index>
54

$$$$
43
XX    ILIB11282304113D

 73 73  0  0  1  0              1 V2000
   38.4602  -46.7196   64.3376 C   0  0  0  0  0
   39.3390  -47.6286   63.7018 O   0  0  0  0  0
   38.9167  -47.9329   62.8805 H   0  0  0  0  0
   37.1980  -47.4849   64.6759 C   0  0  0  0  0
   36.5092  -47.9963   63.7908 O   0  0  0  0  0
   36.7976  -47.6044   66.1370 C   0  0  0  0  0
   37.7223  -48.4945   66.9791 C   0  0  0  0  0
   38.9171  -47.7684   67.2695 O   0  0  0  0  0
   38.6629  -46.9550   67.7377 H   0  0  0  0  0
   38.0902  -49.8496   66.3434 C   0  0  0  0  0
   36.8915  -50.6462   66.0663 N   0  0  0  0  0
   37.1595  -51.5230   65.6184 H   0  0  0  0  0
   36.3001  -50.1585   65.3941 H   0  0  0  0  0
   38.9492  -50.6748   67.3094 C   0  0  0  0  0
   38.4488  -51.4441   68.1335 O   0  0  0  0  0
   40.4381  -50.5192   67.3204 C   0  0  0  0  0
   41.1502  -49.8012   66.4420 C   0  0  0  0  0
   42.6419  -49.5873   66.4781 C   0  0  0  0  0
   43.2981  -50.4248   67.4173 O   0  0  0  0  0
   44.6273  -50.7464   67.0268 C   0  0  0  0  0
   44.6327  -51.2403   66.0512 H   0  0  0  0  0
   45.0451  -51.4345   67.7680 H   0  0  0  0  0
   45.2508  -49.8485   66.9993 H   0  0  0  0  0
   42.8557  -48.1639   66.9597 C   0  0  0  0  0
   43.0693  -47.8629   68.1279 O   0  0  0  0  0
   42.7645  -47.3058   65.8954 O   0  0  0  0  0
   42.8111  -45.9629   66.1614 C   0  0  0  0  0
   42.7670  -45.4400   67.2679 O   0  0  0  0  0
   42.8771  -45.1793   64.8643 C   0  0  0  0  0
   44.0713  -45.6014   64.1376 N   0  0  0  0  0
   44.1244  -45.1112   63.2457 H   0  0  0  0  0
   44.9088  -45.3439   64.6586 H   0  0  0  0  0
   42.9876  -43.6686   65.0690 C   0  0  0  0  0
   43.8503  -43.1905   65.8026 O   0  0  0  0  0
   41.9933  -42.7721   64.3298 C   0  0  0  0  0
   42.6710  -41.5077   63.8197 C   0  0  0  0  0
   43.8457  -41.7152   62.8403 C   0  0  0  0  0
   43.3192  -42.5573   61.3637 Cl  0  0  0  0  0
   44.2589  -40.7488   62.5377 H   0  0  0  0  0
   44.6470  -42.3051   63.2952 H   0  0  0  0  0
   43.0268  -40.9172   64.6686 H   0  0  0  0  0
   41.9305  -40.9011   63.3045 H   0  0  0  0  0
   40.8324  -42.4094   65.2845 C   0  0  0  0  0
   39.6952  -43.4663   65.3101 C   0  0  0  0  0
   38.5888  -43.1558   64.2634 C   0  0  0  0  0
   39.1757  -42.8071   63.0092 O   0  0  0  0  0
   38.4552  -42.5644   62.4039 H   0  0  0  0  0
   37.5847  -44.2936   64.0366 C   0  0  0  0  0
   38.2251  -45.5291   63.4258 C   0  0  0  0  0
   38.5601  -45.5467   62.2405 O   0  0  0  0  0
   36.8103  -43.9708   63.3289 H   0  0  0  0  0
   37.0630  -44.5621   64.9592 H   0  0  0  0  0
   38.0317  -42.2698   64.5909 H   0  0  0  0  0
   39.1246  -43.6058   66.7197 C   0  0  0  0  0
   38.5307  -42.3202   67.2865 C   0  0  0  0  0
   39.2841  -41.5315   67.3661 H   0  0  0  0  0
   37.7084  -41.9524   66.6661 H   0  0  0  0  0
   38.1352  -42.5030   68.2900 H   0  0  0  0  0
   38.3437  -44.3766   66.7202 H   0  0  0  0  0
   39.9135  -43.9518   67.3984 H   0  0  0  0  0
   40.1428  -44.4301   65.0577 H   0  0  0  0  0
   41.2478  -42.2860   66.2932 H   0  0  0  0  0
   40.4053  -41.4355   65.0138 H   0  0  0  0  0
   41.6118  -43.3268   63.4501 H   0  0  0  0  0
   41.9831  -45.4153   64.2809 H   0  0  0  0  0
   43.0964  -49.7063   65.4875 H   0  0  0  0  0
   40.6543  -49.2899   65.6242 H   0  0  0  0  0
   40.9337  -51.0319   68.1402 H   0  0  0  0  0
   38.6241  -49.7258   65.4011 H   0  0  0  0  0
   37.2370  -48.6720   67.9486 H   0  0  0  0  0
   36.7522  -46.5888   66.5479 H   0  0  0  0  0
   35.7757  -48.0005   66.1645 H   0  0  0  0  0
   38.9564  -46.3664   65.2411 H   0  0  0  0  0
  1  2  1  0  0  0
  1  4  1  0  0  0
  1 49  1  0  0  0
  1 73  1  0  0  0
  2  3  1  0  0  0
  4  5  2  0  0  0
  4  6  1  0  0  0
  6  7  1  0  0  0
  6 71  1  0  0  0
  6 72  1  0  0  0
  7  8  1  0  0  0
  7 10  1  0  0  0
  7 70  1  0  0  0
  8  9  1  0  0  0
 10 11  1  0  0  0
 10 14  1  0  0  0
 10 69  1  0  0  0
 11 12  1  0  0  0
 11 13  1  0  0  0
 14 15  2  0  0  0
 14 16  1  0  0  0
 16 17  2  0  0  0
 16 68  1  0  0  0
 17 18  1  0  0  0
 17 67  1  0  0  0
 18 19  1  0  0  0
 18 24  1  0  0  0
 18 66  1  0  0  0
 19 20  1  0  0  0
 20 21  1  0  0  0
 20 22  1  0  0  0
 20 23  1  0  0  0
 24 25  2  0  0  0
 24 26  1  0  0  0
 26 27  1  0  0  0
 27 28  2  0  0  0
 27 29  1  0  0  0
 29 30  1  0  0  0
 29 33  1  0  0  0
 29 65  1  0  0  0
 30 31  1  0  0  0
 30 32  1  0  0  0
 33 34  2  0  0  0
 33 35  1  0  0  0
 35 36  1  0  0  0
 35 43  1  0  0  0
 35 64  1  0  0  0
 36 37  1  0  0  0
 36 41  1  0  0  0
 36 42  1  0  0  0
 37 38  1  0  0  0
 37 39  1  0  0  0
 37 40  1  0  0  0
 43 44  1  0  0  0
 43 62  1  0  0  0
 43 63  1  0  0  0
 44 45  1  0  0  0
 44 54  1  0  0  0
 44 61  1  0  0  0
 45 46  1  0  0  0
 45 48  1  0  0  0
 45 53  1  0  0  0
 46 47  1  0  0  0
 48 49  1  0  0  0
 48 51  1  0  0  0
 48 52  1  0  0  0
 49 50  2  0  0  0
 54 55  1  0  0  0
 54 59  1  0  0  0
 54 60  1  0  0  0
 55 56  1  0  0  0
 55 57  1  0  0  0
 55 58  1  0  0  0
M  END
> <# Confs.>
25

> <Pharmacophore Match>
(1YET) [A] GDM275

> <Matching Features>
||||HBA:495067246627921590|HBA:495067385280122077|HBA:495067408768422079|HBA:495067414144822081

> <Relative Pharmacophore-Fit Score>
0.50

> <Score>
0.49712953

> <Source Database>
conformers.ldb

> <Active/Decoy>
unknown

> <Mol. Index>
48

$$$$
55
XX    ILIB11282304113D

 95 95  0  0  1  0              1 V2000
   44.2665  -45.8749   66.2076 C   0  0  0  0  0
   42.8900  -45.4263   65.7396 C   0  0  0  0  0
   42.2835  -46.2812   65.4226 H   0  0  0  0  0
   42.3618  -44.9190   66.5537 H   0  0  0  0  0
   42.9590  -44.7282   64.8994 H   0  0  0  0  0
   45.0424  -46.5587   65.1218 C   0  0  0  0  0
   44.9700  -48.0810   65.0980 C   0  0  0  0  0
   43.5650  -48.7200   65.0414 C   0  0  0  0  0
   42.8342  -48.2432   63.8651 N   0  0  0  0  0
   43.3457  -48.4874   63.0189 H   0  0  0  0  0
   41.9342  -48.7141   63.7982 H   0  0  0  0  0
   43.7059  -50.2621   65.0136 C   0  0  0  0  0
   42.4293  -51.0357   65.4045 C   0  0  0  0  0
   42.2051  -50.9584   66.9375 C   0  0  0  0  0
   40.9251  -51.5651   67.4944 C   0  0  0  0  0
   41.3788  -52.7477   68.1587 O   0  0  0  0  0
   41.8783  -52.4770   68.9477 H   0  0  0  0  0
   40.1833  -50.6679   68.4976 C   0  0  0  0  0
   39.1789  -51.4498   69.1484 O   0  0  0  0  0
   38.7586  -50.8872   69.8216 H   0  0  0  0  0
   39.5267  -49.4017   67.9147 C   0  0  0  0  0
   40.4826  -48.5569   67.2955 O   0  0  0  0  0
   41.0409  -47.6087   68.1952 C   0  0  0  0  0
   41.5978  -48.1170   68.9879 H   0  0  0  0  0
   41.7337  -46.9734   67.6377 H   0  0  0  0  0
   40.2635  -46.9727   68.6302 H   0  0  0  0  0
   38.4399  -49.6704   66.8693 C   0  0  0  0  0
   37.7357  -48.4567   66.2846 C   0  0  0  0  0
   36.4243  -48.3831   66.9220 N   0  0  0  0  0
   35.9272  -47.5601   66.5821 H   0  0  0  0  0
   36.5389  -48.2424   67.9254 H   0  0  0  0  0
   37.5491  -48.5719   64.7789 C   0  0  0  0  0
   38.7997  -48.3791   63.9353 C   0  0  0  0  0
   38.9717  -49.5925   63.2138 O   0  0  0  0  0
   38.2469  -49.6652   62.5699 H   0  0  0  0  0
   38.6917  -47.2085   62.9569 C   0  0  0  0  0
   38.7281  -45.8282   63.6230 C   0  0  0  0  0
   37.4907  -45.5245   64.3370 N   0  0  0  0  0
   36.7012  -45.5393   63.6917 H   0  0  0  0  0
   37.5341  -44.5836   64.7255 H   0  0  0  0  0
   38.9285  -44.7573   62.5613 C   0  0  0  0  0
   40.2635  -44.6909   62.2663 O   0  0  0  0  0
   40.6581  -43.8178   61.2914 C   0  0  0  0  0
   42.1721  -43.8685   61.1815 C   0  0  0  0  0
   42.5975  -43.0528   60.1023 O   0  0  0  0  0
   42.6675  -43.7605   58.8726 C   0  0  0  0  0
   41.6741  -44.1086   58.5766 H   0  0  0  0  0
   43.0402  -43.0784   58.1037 H   0  0  0  0  0
   43.3560  -44.6079   58.9459 H   0  0  0  0  0
   42.8894  -43.3360   62.4184 C   0  0  0  0  0
   44.3911  -43.5730   62.4935 C   0  0  0  0  0
   45.0305  -42.4749   61.7784 N   0  0  0  0  0
   46.0390  -42.6191   61.7421 H   0  0  0  0  0
   44.8815  -41.5948   62.2725 H   0  0  0  0  0
   44.9891  -43.5979   63.8954 C   0  0  0  0  0
   46.2232  -44.4814   64.0952 C   0  0  0  0  0
   45.8652  -45.9358   64.2506 C   0  0  0  0  0
   46.4018  -46.5692   63.5443 H   0  0  0  0  0
   47.1383  -43.9664   65.2030 C   0  0  0  0  0
   48.0423  -44.5795   65.2829 H   0  0  0  0  0
   47.4500  -42.9371   64.9908 H   0  0  0  0  0
   46.6516  -43.9554   66.1818 H   0  0  0  0  0
   46.8041  -44.3918   63.1666 H   0  0  0  0  0
   44.5294  -42.9174   64.8129 O   0  0  0  0  0
   44.6034  -44.5298   62.0067 H   0  0  0  0  0
   42.2768  -42.7347   63.3019 O   0  0  0  0  0
   42.4751  -44.9135   61.0263 H   0  0  0  0  0
   39.9406  -43.1057   60.6020 O   0  0  0  0  0
   38.0303  -44.0962   62.0596 O   0  0  0  0  0
   39.5548  -45.7635   64.3386 H   0  0  0  0  0
   37.7858  -47.3102   62.3425 H   0  0  0  0  0
   39.5188  -47.2908   62.2376 H   0  0  0  0  0
   39.6739  -48.2572   64.5808 H   0  0  0  0  0
   36.4651  -48.8365   64.2565 O   0  0  0  0  0
   38.2898  -47.5389   66.4965 H   0  0  0  0  0
   38.0947  -50.8079   66.5473 O   0  0  0  0  0
   39.0117  -48.8621   68.7227 H   0  0  0  0  0
   40.8924  -50.3700   69.2802 H   0  0  0  0  0
   40.2687  -51.8905   66.6861 H   0  0  0  0  0
   43.0392  -50.4602   67.6964 O   0  0  0  0  0
   42.5256  -52.5000   65.0090 C   0  0  0  0  0
   43.7141  -53.2377   65.6229 C   0  0  0  0  0
   43.7478  -54.9271   65.0692 Cl  0  0  0  0  0
   43.6415  -53.2462   66.7144 H   0  0  0  0  0
   44.6651  -52.7765   65.3410 H   0  0  0  0  0
   42.6587  -52.5268   63.9075 H   0  0  0  0  0
   41.5984  -53.0217   65.2209 H   0  0  0  0  0
   41.5471  -50.5803   64.9400 H   0  0  0  0  0
   44.0160  -50.5544   63.9965 H   0  0  0  0  0
   44.5264  -50.5680   65.6650 H   0  0  0  0  0
   43.0080  -48.4251   65.9354 H   0  0  0  0  0
   45.5657  -48.4754   64.2628 H   0  0  0  0  0
   45.4725  -48.4367   66.0087 H   0  0  0  0  0
   44.8329  -45.0057   66.5639 H   0  0  0  0  0
   44.1469  -46.5405   67.0706 H   0  0  0  0  0
  1  2  1  0  0  0
  1  6  1  0  0  0
  1 94  1  0  0  0
  1 95  1  0  0  0
  2  3  1  0  0  0
  2  4  1  0  0  0
  2  5  1  0  0  0
  6  7  1  0  0  0
  6 57  2  0  0  0
  7  8  1  0  0  0
  7 92  1  0  0  0
  7 93  1  0  0  0
  8  9  1  0  0  0
  8 12  1  0  0  0
  8 91  1  0  0  0
  9 10  1  0  0  0
  9 11  1  0  0  0
 12 13  1  0  0  0
 12 89  1  0  0  0
 12 90  1  0  0  0
 13 14  1  0  0  0
 13 81  1  0  0  0
 13 88  1  0  0  0
 14 15  1  0  0  0
 14 80  2  0  0  0
 15 16  1  0  0  0
 15 18  1  0  0  0
 15 79  1  0  0  0
 16 17  1  0  0  0
 18 19  1  0  0  0
 18 21  1  0  0  0
 18 78  1  0  0  0
 19 20  1  0  0  0
 21 22  1  0  0  0
 21 27  1  0  0  0
 21 77  1  0  0  0
 22 23  1  0  0  0
 23 24  1  0  0  0
 23 25  1  0  0  0
 23 26  1  0  0  0
 27 28  1  0  0  0
 27 76  2  0  0  0
 28 29  1  0  0  0
 28 32  1  0  0  0
 28 75  1  0  0  0
 29 30  1  0  0  0
 29 31  1  0  0  0
 32 33  1  0  0  0
 32 74  2  0  0  0
 33 34  1  0  0  0
 33 36  1  0  0  0
 33 73  1  0  0  0
 34 35  1  0  0  0
 36 37  1  0  0  0
 36 71  1  0  0  0
 36 72  1  0  0  0
 37 38  1  0  0  0
 37 41  1  0  0  0
 37 70  1  0  0  0
 38 39  1  0  0  0
 38 40  1  0  0  0
 41 42  1  0  0  0
 41 69  2  0  0  0
 42 43  1  0  0  0
 43 44  1  0  0  0
 43 68  2  0  0  0
 44 45  1  0  0  0
 44 50  1  0  0  0
 44 67  1  0  0  0
 45 46  1  0  0  0
 46 47  1  0  0  0
 46 48  1  0  0  0
 46 49  1  0  0  0
 50 51  1  0  0  0
 50 66  2  0  0  0
 51 52  1  0  0  0
 51 55  1  0  0  0
 51 65  1  0  0  0
 52 53  1  0  0  0
 52 54  1  0  0  0
 55 56  1  0  0  0
 55 64  2  0  0  0
 56 57  1  0  0  0
 56 59  1  0  0  0
 56 63  1  0  0  0
 57 58  1  0  0  0
 59 60  1  0  0  0
 59 61  1  0  0  0
 59 62  1  0  0  0
 81 82  1  0  0  0
 81 86  1  0  0  0
 81 87  1  0  0  0
 82 83  1  0  0  0
 82 84  1  0  0  0
 82 85  1  0  0  0
M  END
> <# Confs.>
25

> <Pharmacophore Match>
(1YET) [A] GDM275

> <Matching Features>
||||HBA:495067246627921590|HBA:495067385280122077|HBA:495067408768422079|HBA:495067414144822081

> <Relative Pharmacophore-Fit Score>
0.50

> <Score>
0.50332445

> <Source Database>
conformers.ldb

> <Active/Decoy>
unknown

> <Mol. Index>
62

$$$$
48
XX    ILIB11282304113D

 39 39  0  0  1  0              1 V2000
   40.4958  -49.3427   67.2473 C   0  0  0  0  0
   39.4605  -49.4376   68.1186 O   0  0  0  0  0
   39.5873  -50.1689   68.7602 H   0  0  0  0  0
   41.4635  -50.0889   67.2621 O   0  0  0  0  0
   40.2719  -48.2494   66.2392 C   0  0  0  0  0
   40.2648  -48.8608   64.9650 O   0  0  0  0  0
   38.9707  -49.2901   64.5622 C   0  0  0  0  0
   38.2723  -48.4481   64.5348 H   0  0  0  0  0
   38.5996  -50.0655   65.2389 H   0  0  0  0  0
   39.0465  -49.7141   63.5576 H   0  0  0  0  0
   41.3236  -47.1483   66.3059 C   0  0  0  0  0
   41.3225  -46.5448   67.5980 O   0  0  0  0  0
   42.0539  -45.9040   67.6288 H   0  0  0  0  0
   41.1529  -46.0200   65.2551 C   0  0  0  0  0
   42.2488  -45.0972   65.4746 O   0  0  0  0  0
   42.7203  -44.2289   64.5499 C   0  0  0  0  0
   41.9536  -44.0257   63.2546 C   0  0  0  0  0
   40.4285  -44.0141   63.3315 C   0  0  0  0  0
   39.7981  -43.9209   64.7094 C   0  0  0  0  0
   38.4808  -43.4081   64.6179 O   0  0  0  0  0
   37.9601  -44.0107   64.0606 H   0  0  0  0  0
   39.8061  -45.2917   65.3863 C   0  0  0  0  0
   38.7986  -46.1217   64.8052 O   0  0  0  0  0
   37.9348  -45.7606   65.0682 H   0  0  0  0  0
   39.5457  -45.1575   66.4432 H   0  0  0  0  0
   40.3688  -43.1931   65.2950 H   0  0  0  0  0
   39.7348  -44.0265   62.3144 O   0  0  0  0  0
   42.4699  -44.9668   62.1687 C   0  0  0  0  0
   43.9441  -44.7852   61.8260 C   0  0  0  0  0
   44.5836  -44.9687   62.6940 H   0  0  0  0  0
   44.1451  -43.7761   61.4539 H   0  0  0  0  0
   44.2333  -45.4947   61.0439 H   0  0  0  0  0
   42.3143  -46.0035   62.4920 H   0  0  0  0  0
   41.8807  -44.8287   61.2546 H   0  0  0  0  0
   42.1815  -42.9900   62.9556 H   0  0  0  0  0
   43.7682  -43.6179   64.7559 O   0  0  0  0  0
   41.2610  -46.4746   64.2645 H   0  0  0  0  0
   42.3135  -47.5957   66.1502 H   0  0  0  0  0
   39.2702  -47.8243   66.4646 H   0  0  0  0  0
  1  2  1  0  0  0
  1  4  2  0  0  0
  1  5  1  0  0  0
  2  3  1  0  0  0
  5  6  1  0  0  0
  5 11  1  0  0  0
  5 39  1  0  0  0
  6  7  1  0  0  0
  7  8  1  0  0  0
  7  9  1  0  0  0
  7 10  1  0  0  0
 11 12  1  0  0  0
 11 14  1  0  0  0
 11 38  1  0  0  0
 12 13  1  0  0  0
 14 15  1  0  0  0
 14 22  1  0  0  0
 14 37  1  0  0  0
 15 16  1  0  0  0
 16 17  1  0  0  0
 16 36  2  0  0  0
 17 18  1  0  0  0
 17 28  1  0  0  0
 17 35  1  0  0  0
 18 19  1  0  0  0
 18 27  2  0  0  0
 19 20  1  0  0  0
 19 22  1  0  0  0
 19 26  1  0  0  0
 20 21  1  0  0  0
 22 23  1  0  0  0
 22 25  1  0  0  0
 23 24  1  0  0  0
 28 29  1  0  0  0
 28 33  1  0  0  0
 28 34  1  0  0  0
 29 30  1  0  0  0
 29 31  1  0  0  0
 29 32  1  0  0  0
M  END
> <# Confs.>
25

> <Pharmacophore Match>
(1YET) [A] GDM275

> <Matching Features>
||||HBA:495067246627921590|HBA:495067385280122077|HBA:495067408768422079|HBA:495067414144822081

> <Relative Pharmacophore-Fit Score>
0.50

> <Score>
0.49709037

> <Source Database>
conformers.ldb

> <Active/Decoy>
unknown

> <Mol. Index>
41

$$$$
47
XX    ILIB11282304113D

 39 39  0  0  1  0              1 V2000
   40.5650  -49.2946   67.3747 C   0  0  0  0  0
   40.0180  -50.5342   67.3106 O   0  0  0  0  0
   40.3163  -51.1052   68.0505 H   0  0  0  0  0
   41.3425  -48.9423   68.2493 O   0  0  0  0  0
   40.1389  -48.4411   66.2121 C   0  0  0  0  0
   41.3141  -48.0807   65.5145 O   0  0  0  0  0
   41.6687  -49.0155   64.5036 C   0  0  0  0  0
   40.8623  -49.1213   63.7715 H   0  0  0  0  0
   41.9029  -49.9868   64.9492 H   0  0  0  0  0
   42.5601  -48.6454   63.9908 H   0  0  0  0  0
   39.3495  -47.1894   66.6373 C   0  0  0  0  0
   38.1781  -47.5812   67.3397 O   0  0  0  0  0
   37.7472  -46.7694   67.6585 H   0  0  0  0  0
   38.9330  -46.2721   65.4662 C   0  0  0  0  0
   38.0844  -47.0044   64.5766 O   0  0  0  0  0
   37.7747  -46.3866   63.8933 H   0  0  0  0  0
   40.0918  -45.6713   64.6530 C   0  0  0  0  0
   39.5095  -44.8455   63.6202 O   0  0  0  0  0
   40.2567  -44.0103   62.8623 C   0  0  0  0  0
   41.7016  -43.8002   63.2594 C   0  0  0  0  0
   42.1253  -44.3187   64.6176 C   0  0  0  0  0
   41.0397  -44.8539   65.5058 C   0  0  0  0  0
   40.3816  -43.7570   66.1109 O   0  0  0  0  0
   41.0137  -43.3211   66.7085 H   0  0  0  0  0
   41.4958  -45.4745   66.2949 H   0  0  0  0  0
   43.2954  -44.2565   65.0024 O   0  0  0  0  0
   42.6317  -44.3104   62.1611 C   0  0  0  0  0
   42.4827  -45.7938   61.8469 C   0  0  0  0  0
   41.4719  -46.0301   61.5010 H   0  0  0  0  0
   42.7022  -46.4117   62.7237 H   0  0  0  0  0
   43.1806  -46.0779   61.0527 H   0  0  0  0  0
   42.4453  -43.7413   61.2424 H   0  0  0  0  0
   43.6741  -44.1187   62.4459 H   0  0  0  0  0
   41.8137  -42.7090   63.3406 H   0  0  0  0  0
   39.7711  -43.4380   61.8887 O   0  0  0  0  0
   40.6432  -46.4839   64.1614 H   0  0  0  0  0
   38.3336  -45.4466   65.8728 H   0  0  0  0  0
   39.9773  -46.6093   67.3174 H   0  0  0  0  0
   39.4993  -49.0884   65.5742 H   0  0  0  0  0
  1  2  1  0  0  0
  1  4  2  0  0  0
  1  5  1  0  0  0
  2  3  1  0  0  0
  5  6  1  0  0  0
  5 11  1  0  0  0
  5 39  1  0  0  0
  6  7  1  0  0  0
  7  8  1  0  0  0
  7  9  1  0  0  0
  7 10  1  0  0  0
 11 12  1  0  0  0
 11 14  1  0  0  0
 11 38  1  0  0  0
 12 13  1  0  0  0
 14 15  1  0  0  0
 14 17  1  0  0  0
 14 37  1  0  0  0
 15 16  1  0  0  0
 17 18  1  0  0  0
 17 22  1  0  0  0
 17 36  1  0  0  0
 18 19  1  0  0  0
 19 20  1  0  0  0
 19 35  2  0  0  0
 20 21  1  0  0  0
 20 27  1  0  0  0
 20 34  1  0  0  0
 21 22  1  0  0  0
 21 26  2  0  0  0
 22 23  1  0  0  0
 22 25  1  0  0  0
 23 24  1  0  0  0
 27 28  1  0  0  0
 27 32  1  0  0  0
 27 33  1  0  0  0
 28 29  1  0  0  0
 28 30  1  0  0  0
 28 31  1  0  0  0
M  END
> <# Confs.>
25

> <Pharmacophore Match>
(1YET) [A] GDM275

> <Matching Features>
||||HBA:495067246627921590|HBA:495067385280122077|HBA:495067408768422079|HBA:495067414144822081

> <Relative Pharmacophore-Fit Score>
0.50

> <Score>
0.49533987

> <Source Database>
conformers.ldb

> <Active/Decoy>
unknown

> <Mol. Index>
39

$$$$
44
XX    ILIB11282304113D

 38 38  0  0  1  0              1 V2000
   43.2241  -45.8635   63.7420 C   0  0  0  0  0
   43.1446  -44.3570   63.7924 C   0  0  0  0  0
   44.0671  -43.6631   64.2187 O   0  0  0  0  0
   41.9000  -43.7533   63.1748 C   0  0  0  0  0
   40.6524  -44.6093   63.2140 C   0  0  0  0  0
   40.7625  -45.8844   63.6484 O   0  0  0  0  0
   41.9265  -46.4305   64.3202 C   0  0  0  0  0
   41.7338  -46.3774   65.8388 C   0  0  0  0  0
   41.7848  -44.9707   66.2682 N   0  0  0  0  0
   41.0061  -44.4602   65.8533 H   0  0  0  0  0
   41.6562  -44.9113   67.2778 H   0  0  0  0  0
   40.4242  -46.9952   66.3292 C   0  0  0  0  0
   40.1811  -48.4580   65.9862 C   0  0  0  0  0
   41.1716  -49.3007   66.5579 O   0  0  0  0  0
   41.4014  -50.4685   65.7821 C   0  0  0  0  0
   40.4959  -51.0785   65.7193 H   0  0  0  0  0
   42.1827  -51.0558   66.2714 H   0  0  0  0  0
   41.7454  -50.2003   64.7792 H   0  0  0  0  0
   38.8329  -48.9508   66.5102 C   0  0  0  0  0
   37.8170  -48.2446   65.9734 O   0  0  0  0  0
   36.9436  -48.5612   66.2887 H   0  0  0  0  0
   38.6760  -49.8790   67.3001 O   0  0  0  0  0
   40.1504  -48.6050   64.9078 H   0  0  0  0  0
   39.5900  -46.4244   65.8667 H   0  0  0  0  0
   40.3116  -46.8421   67.4113 H   0  0  0  0  0
   42.5785  -46.8879   66.3332 H   0  0  0  0  0
   41.9135  -47.4953   64.0491 H   0  0  0  0  0
   39.5720  -44.1809   62.8122 O   0  0  0  0  0
   41.6055  -42.3858   63.7885 C   0  0  0  0  0
   41.3755  -42.4729   64.8555 H   0  0  0  0  0
   42.4614  -41.7121   63.6849 H   0  0  0  0  0
   40.7489  -41.9073   63.3014 H   0  0  0  0  0
   42.1390  -43.6258   62.1111 H   0  0  0  0  0
   44.4791  -46.4050   64.4169 C   0  0  0  0  0
   44.4863  -47.4994   64.4103 H   0  0  0  0  0
   44.5673  -46.0641   65.4534 H   0  0  0  0  0
   45.3768  -46.0615   63.8892 H   0  0  0  0  0
   43.2737  -46.1186   62.6750 H   0  0  0  0  0
  1  2  1  0  0  0
  1  7  1  0  0  0
  1 34  1  0  0  0
  1 38  1  0  0  0
  2  3  2  0  0  0
  2  4  1  0  0  0
  4  5  1  0  0  0
  4 29  1  0  0  0
  4 33  1  0  0  0
  5  6  1  0  0  0
  5 28  2  0  0  0
  6  7  1  0  0  0
  7  8  1  0  0  0
  7 27  1  0  0  0
  8  9  1  0  0  0
  8 12  1  0  0  0
  8 26  1  0  0  0
  9 10  1  0  0  0
  9 11  1  0  0  0
 12 13  1  0  0  0
 12 24  1  0  0  0
 12 25  1  0  0  0
 13 14  1  0  0  0
 13 19  1  0  0  0
 13 23  1  0  0  0
 14 15  1  0  0  0
 15 16  1  0  0  0
 15 17  1  0  0  0
 15 18  1  0  0  0
 19 20  1  0  0  0
 19 22  2  0  0  0
 20 21  1  0  0  0
 29 30  1  0  0  0
 29 31  1  0  0  0
 29 32  1  0  0  0
 34 35  1  0  0  0
 34 36  1  0  0  0
 34 37  1  0  0  0
M  END
> <# Confs.>
25

> <Pharmacophore Match>
(1YET) [A] GDM275

> <Matching Features>
||||HBA:495067246627921590|HBA:495067385280122077|HBA:495067408768422079|HBA:495067414144822081

> <Relative Pharmacophore-Fit Score>
0.50

> <Score>
0.49569562

> <Source Database>
conformers.ldb

> <Active/Decoy>
unknown

> <Mol. Index>
36

$$$$
58
XX    ILIB11282304113D

 58 58  0  0  1  0              1 V2000
   39.1442  -49.8745   66.5608 C   0  0  0  0  0
   38.9628  -49.4172   65.2954 O   0  0  0  0  0
   38.3910  -50.0142   64.7684 H   0  0  0  0  0
   38.6564  -50.9137   66.9797 O   0  0  0  0  0
   40.0269  -48.9398   67.3505 C   0  0  0  0  0
   39.7020  -48.9694   68.7223 O   0  0  0  0  0
   39.8021  -49.8828   69.0422 H   0  0  0  0  0
   41.5072  -49.2188   67.2136 C   0  0  0  0  0
   42.1960  -49.5010   68.1978 O   0  0  0  0  0
   42.1189  -49.2015   65.8378 C   0  0  0  0  0
   43.5174  -49.4895   65.9418 O   0  0  0  0  0
   43.6026  -50.3945   66.2856 H   0  0  0  0  0
   41.9471  -47.8606   65.1479 C   0  0  0  0  0
   42.5469  -47.9099   63.8516 O   0  0  0  0  0
   43.5091  -47.9785   63.9739 H   0  0  0  0  0
   42.4913  -46.6376   65.8766 C   0  0  0  0  0
   42.2651  -45.3111   65.1361 C   0  0  0  0  0
   42.9253  -45.4237   63.8522 O   0  0  0  0  0
   43.5794  -44.3037   63.4265 C   0  0  0  0  0
   43.2954  -44.1158   61.9502 C   0  0  0  0  0
   42.0017  -43.2868   61.7776 C   0  0  0  0  0
   42.2242  -41.9450   62.2136 O   0  0  0  0  0
   41.4028  -41.4484   62.0565 H   0  0  0  0  0
   40.7535  -43.8717   62.4661 C   0  0  0  0  0
   39.6122  -43.1725   61.9734 O   0  0  0  0  0
   38.8221  -43.6481   62.2818 H   0  0  0  0  0
   40.6976  -43.6982   63.9880 C   0  0  0  0  0
   40.7933  -44.9721   64.8460 C   0  0  0  0  0
   40.1260  -44.7516   66.0751 O   0  0  0  0  0
   38.7489  -45.1000   66.0189 C   0  0  0  0  0
   38.2330  -44.4958   65.2659 H   0  0  0  0  0
   38.6353  -46.1648   65.7937 H   0  0  0  0  0
   38.3030  -44.8982   66.9953 H   0  0  0  0  0
   40.3052  -45.7883   64.2986 H   0  0  0  0  0
   40.5549  -42.5885   64.5034 O   0  0  0  0  0
   40.6304  -44.9255   62.1956 H   0  0  0  0  0
   41.7863  -43.2171   60.7051 H   0  0  0  0  0
   44.5175  -43.4935   61.2796 C   0  0  0  0  0
   45.7916  -44.3251   61.3883 C   0  0  0  0  0
   45.5920  -45.9252   60.6365 Cl  0  0  0  0  0
   46.0522  -44.4851   62.4383 H   0  0  0  0  0
   46.6323  -43.8266   60.8971 H   0  0  0  0  0
   44.6891  -42.4846   61.6782 H   0  0  0  0  0
   44.2897  -43.3482   60.2152 H   0  0  0  0  0
   43.1445  -45.1102   61.5079 H   0  0  0  0  0
   44.1838  -43.5086   64.1328 O   0  0  0  0  0
   42.7189  -44.5073   65.7322 H   0  0  0  0  0
   43.9832  -46.8469   66.2517 C   0  0  0  0  0
   44.6226  -45.6750   66.9908 C   0  0  0  0  0
   43.7852  -45.3356   68.5240 Cl  0  0  0  0  0
   44.5719  -44.7677   66.3814 H   0  0  0  0  0
   45.6731  -45.8773   67.2204 H   0  0  0  0  0
   44.5632  -47.0868   65.3517 H   0  0  0  0  0
   44.0572  -47.7379   66.8894 H   0  0  0  0  0
   41.9612  -46.5507   66.8348 H   0  0  0  0  0
   40.8670  -47.6961   64.9699 H   0  0  0  0  0
   41.6786  -50.0054   65.2370 H   0  0  0  0  0
   39.8417  -47.9250   66.9813 H   0  0  0  0  0
  1  2  1  0  0  0
  1  4  2  0  0  0
  1  5  1  0  0  0
  2  3  1  0  0  0
  5  6  1  0  0  0
  5  8  1  0  0  0
  5 58  1  0  0  0
  6  7  1  0  0  0
  8  9  2  0  0  0
  8 10  1  0  0  0
 10 11  1  0  0  0
 10 13  1  0  0  0
 10 57  1  0  0  0
 11 12  1  0  0  0
 13 14  1  0  0  0
 13 16  1  0  0  0
 13 56  1  0  0  0
 14 15  1  0  0  0
 16 17  1  0  0  0
 16 48  1  0  0  0
 16 55  1  0  0  0
 17 18  1  0  0  0
 17 28  1  0  0  0
 17 47  1  0  0  0
 18 19  1  0  0  0
 19 20  1  0  0  0
 19 46  2  0  0  0
 20 21  1  0  0  0
 20 38  1  0  0  0
 20 45  1  0  0  0
 21 22  1  0  0  0
 21 24  1  0  0  0
 21 37  1  0  0  0
 22 23  1  0  0  0
 24 25  1  0  0  0
 24 27  1  0  0  0
 24 36  1  0  0  0
 25 26  1  0  0  0
 27 28  1  0  0  0
 27 35  2  0  0  0
 28 29  1  0  0  0
 28 34  1  0  0  0
 29 30  1  0  0  0
 30 31  1  0  0  0
 30 32  1  0  0  0
 30 33  1  0  0  0
 38 39  1  0  0  0
 38 43  1  0  0  0
 38 44  1  0  0  0
 39 40  1  0  0  0
 39 41  1  0  0  0
 39 42  1  0  0  0
 48 49  1  0  0  0
 48 53  1  0  0  0
 48 54  1  0  0  0
 49 50  1  0  0  0
 49 51  1  0  0  0
 49 52  1  0  0  0
M  END
> <# Confs.>
25

> <Pharmacophore Match>
(1YET) [A] GDM275

> <Matching Features>
||||HBA:495067246627921590|HBA:495067385280122077|HBA:495067408768422079|HBA:495067414144822081

> <Relative Pharmacophore-Fit Score>
0.52

> <Score>
0.51756746

> <Source Database>
conformers.ldb

> <Active/Decoy>
unknown

> <Mol. Index>
53

$$$$
64
XX    ILIB11282304113D

 67 66  0  0  1  0              1 V2000
   41.7260  -44.0062   64.1962 C   0  0  0  0  0
   40.2474  -44.3235   64.1715 C   0  0  0  0  0
   39.7491  -45.4372   65.0774 C   0  0  0  0  0
   38.3489  -45.5865   64.9176 O   0  0  0  0  0
   38.1906  -45.8961   64.0094 H   0  0  0  0  0
   40.0236  -45.0582   66.4953 C   0  0  0  0  0
   40.7718  -45.6910   67.4088 C   0  0  0  0  0
   41.6038  -46.9057   67.2198 C   0  0  0  0  0
   41.7811  -47.8222   68.4213 C   0  0  0  0  0
   42.4005  -47.0802   69.4481 O   0  0  0  0  0
   43.3004  -46.8468   69.1628 H   0  0  0  0  0
   42.5748  -49.0872   68.1208 C   0  0  0  0  0
   42.0402  -50.0192   67.0663 C   0  0  0  0  0
   42.9162  -51.1187   66.9729 O   0  0  0  0  0
   43.9400  -50.8867   65.9925 C   0  0  0  0  0
   43.4963  -50.7493   65.0010 H   0  0  0  0  0
   44.5878  -51.7658   65.9647 H   0  0  0  0  0
   44.5444  -50.0153   66.2587 H   0  0  0  0  0
   40.6711  -50.6097   67.3757 C   0  0  0  0  0
   40.0737  -51.5635   66.3587 C   0  0  0  0  0
   40.4164  -53.0239   66.5549 C   0  0  0  0  0
   40.4846  -53.9032   65.3217 C   0  0  0  0  0
   41.4817  -53.3749   64.4653 O   0  0  0  0  0
   41.2082  -53.6262   63.0927 C   0  0  0  0  0
   41.1743  -54.7031   62.9018 H   0  0  0  0  0
   42.0144  -53.1920   62.4964 H   0  0  0  0  0
   40.2644  -53.1601   62.7954 H   0  0  0  0  0
   40.8642  -55.3501   65.5754 C   0  0  0  0  0
   39.9826  -55.9681   66.3987 O   0  0  0  0  0
   40.2407  -56.8967   66.5817 H   0  0  0  0  0
   41.8620  -55.8919   65.1181 O   0  0  0  0  0
   39.4838  -53.8807   64.8700 H   0  0  0  0  0
   40.6209  -53.4670   67.6868 O   0  0  0  0  0
   38.5548  -51.3870   66.2762 C   0  0  0  0  0
   38.1618  -49.9728   65.8603 C   0  0  0  0  0
   38.8223  -49.5539   64.2619 Cl  0  0  0  0  0
   37.0735  -49.8619   65.8128 H   0  0  0  0  0
   38.5497  -49.2430   66.5779 H   0  0  0  0  0
   38.0966  -51.6332   67.2434 H   0  0  0  0  0
   38.1414  -52.1021   65.5515 H   0  0  0  0  0
   40.5230  -51.2799   65.3976 H   0  0  0  0  0
   40.0816  -50.3085   68.4151 O   0  0  0  0  0
   41.9554  -49.4379   66.1408 H   0  0  0  0  0
   43.6213  -49.3067   68.7287 O   0  0  0  0  0
   40.7983  -48.1284   68.7764 H   0  0  0  0  0
   42.1094  -47.1599   66.1273 O   0  0  0  0  0
   40.7942  -45.2879   68.4191 H   0  0  0  0  0
   39.5087  -44.1613   66.8439 H   0  0  0  0  0
   40.2327  -46.3755   64.7908 H   0  0  0  0  0
   39.4891  -43.6957   63.4290 O   0  0  0  0  0
   41.9522  -42.5530   64.6248 C   0  0  0  0  0
   41.4147  -42.3350   65.9319 O   0  0  0  0  0
   41.9241  -42.8674   66.5670 H   0  0  0  0  0
   43.4334  -42.1422   64.5695 C   0  0  0  0  0
   44.1774  -42.9820   65.4424 O   0  0  0  0  0
   45.1207  -42.7888   65.3030 H   0  0  0  0  0
   43.6458  -40.7264   65.0232 C   0  0  0  0  0
   42.9655  -39.8413   64.2554 O   0  0  0  0  0
   43.1229  -38.9145   64.5354 H   0  0  0  0  0
   44.3700  -40.4022   65.9548 O   0  0  0  0  0
   43.8381  -42.2714   63.5595 H   0  0  0  0  0
   41.3850  -41.8994   63.9474 H   0  0  0  0  0
   42.3344  -44.3289   62.8348 C   0  0  0  0  0
   41.9881  -43.6330   62.0619 H   0  0  0  0  0
   43.4270  -44.2773   62.8686 H   0  0  0  0  0
   42.0602  -45.3392   62.5147 H   0  0  0  0  0
   42.1700  -44.6758   64.9446 H   0  0  0  0  0
  1  2  1  0  0  0
  1 51  1  0  0  0
  1 63  1  0  0  0
  1 67  1  0  0  0
  2  3  1  0  0  0
  2 50  2  0  0  0
  3  4  1  0  0  0
  3  6  1  0  0  0
  3 49  1  0  0  0
  4  5  1  0  0  0
  6  7  2  0  0  0
  6 48  1  0  0  0
  7  8  1  0  0  0
  7 47  1  0  0  0
  8  9  1  0  0  0
  8 46  2  0  0  0
  9 10  1  0  0  0
  9 12  1  0  0  0
  9 45  1  0  0  0
 10 11  1  0  0  0
 12 13  1  0  0  0
 12 44  2  0  0  0
 13 14  1  0  0  0
 13 19  1  0  0  0
 13 43  1  0  0  0
 14 15  1  0  0  0
 15 16  1  0  0  0
 15 17  1  0  0  0
 15 18  1  0  0  0
 19 20  1  0  0  0
 19 42  2  0  0  0
 20 21  1  0  0  0
 20 34  1  0  0  0
 20 41  1  0  0  0
 21 22  1  0  0  0
 21 33  2  0  0  0
 22 23  1  0  0  0
 22 28  1  0  0  0
 22 32  1  0  0  0
 23 24  1  0  0  0
 24 25  1  0  0  0
 24 26  1  0  0  0
 24 27  1  0  0  0
 28 29  1  0  0  0
 28 31  2  0  0  0
 29 30  1  0  0  0
 34 35  1  0  0  0
 34 39  1  0  0  0
 34 40  1  0  0  0
 35 36  1  0  0  0
 35 37  1  0  0  0
 35 38  1  0  0  0
 51 52  1  0  0  0
 51 54  1  0  0  0
 51 62  1  0  0  0
 52 53  1  0  0  0
 54 55  1  0  0  0
 54 57  1  0  0  0
 54 61  1  0  0  0
 55 56  1  0  0  0
 57 58  1  0  0  0
 57 60  2  0  0  0
 58 59  1  0  0  0
 63 64  1  0  0  0
 63 65  1  0  0  0
 63 66  1  0  0  0
M  END
> <# Confs.>
25

> <Pharmacophore Match>
(1YET) [A] GDM275

> <Matching Features>
||H:495067334351321757||HBA:495067246627921590|HBA:495067385280122077|HBA:495067408768422079|HBA:495067414144822081

> <Relative Pharmacophore-Fit Score>
0.60

> <Score>
0.6039679

> <Source Database>
conformers.ldb

> <Active/Decoy>
unknown

> <Mol. Index>
58

$$$$
57
XX    ILIB11282304113D

 62 62  0  0  1  0              1 V2000
   42.4256  -51.6207   66.7453 C   0  0  0  0  0
   42.9182  -51.2079   65.3815 C   0  0  0  0  0
   41.9568  -50.4538   64.4909 C   0  0  0  0  0
   41.4086  -51.4191   63.5472 N   0  0  0  0  0
   42.1602  -51.8063   62.9778 H   0  0  0  0  0
   40.7849  -50.9436   62.8960 H   0  0  0  0  0
   40.8077  -49.8086   65.2401 C   0  0  0  0  0
   41.0984  -49.3903   66.6750 C   0  0  0  0  0
   39.8883  -48.7630   67.3490 C   0  0  0  0  0
   40.0051  -47.3554   67.8490 C   0  0  0  0  0
   40.9705  -47.1430   68.7919 N   0  0  0  0  0
   41.1125  -46.2142   69.1677 H   0  0  0  0  0
   41.5790  -47.8999   69.0802 H   0  0  0  0  0
   39.1972  -46.3906   67.3687 C   0  0  0  0  0
   38.0550  -46.4535   66.4075 C   0  0  0  0  0
   36.8321  -46.0004   66.9763 O   0  0  0  0  0
   36.0958  -47.0457   67.5978 C   0  0  0  0  0
   35.8709  -47.8394   66.8786 H   0  0  0  0  0
   35.1529  -46.6299   67.9638 H   0  0  0  0  0
   36.6468  -47.4534   68.4497 H   0  0  0  0  0
   38.3808  -45.5297   65.2498 C   0  0  0  0  0
   39.1292  -46.0899   64.0606 C   0  0  0  0  0
   38.1283  -46.5903   63.1118 N   0  0  0  0  0
   37.4929  -47.2269   63.5689 H   0  0  0  0  0
   37.5592  -45.8096   62.7529 H   0  0  0  0  0
   40.0428  -45.0368   63.4277 C   0  0  0  0  0
   39.2462  -43.9282   62.9948 O   0  0  0  0  0
   38.9428  -43.4519   63.7860 H   0  0  0  0  0
   41.2064  -44.4992   64.2664 C   0  0  0  0  0
   42.0274  -43.4591   63.4913 C   0  0  0  0  0
   43.0946  -43.0003   64.3293 O   0  0  0  0  0
   43.7415  -43.7212   64.4065 H   0  0  0  0  0
   42.6149  -43.8629   62.1357 C   0  0  0  0  0
   43.4268  -42.7995   61.3931 C   0  0  0  0  0
   43.9849  -43.2597   60.0506 C   0  0  0  0  0
   44.6707  -44.1039   60.1693 H   0  0  0  0  0
   43.1853  -43.5579   59.3649 H   0  0  0  0  0
   44.5414  -42.4442   59.5769 H   0  0  0  0  0
   42.7981  -41.9171   61.2202 H   0  0  0  0  0
   44.2639  -42.4745   62.0226 H   0  0  0  0  0
   41.8134  -44.2278   61.4803 H   0  0  0  0  0
   43.2844  -44.7167   62.3034 H   0  0  0  0  0
   41.3861  -42.5819   63.3353 H   0  0  0  0  0
   42.0799  -45.6377   64.8163 C   0  0  0  0  0
   42.5758  -46.1974   64.0170 H   0  0  0  0  0
   42.8575  -45.2486   65.4826 H   0  0  0  0  0
   41.4808  -46.3444   65.3988 H   0  0  0  0  0
   40.7651  -43.9971   65.1387 H   0  0  0  0  0
   40.4581  -45.4689   62.5088 H   0  0  0  0  0
   39.7202  -46.9303   64.4160 H   0  0  0  0  0
   38.0117  -44.3409   65.2631 O   0  0  0  0  0
   37.9208  -47.4656   65.9976 H   0  0  0  0  0
   39.3662  -45.3845   67.7574 H   0  0  0  0  0
   38.8340  -49.3879   67.4774 O   0  0  0  0  0
   41.6763  -50.5417   67.4879 C   0  0  0  0  0
   41.5500  -50.6009   68.7123 O   0  0  0  0  0
   41.8909  -48.6328   66.6219 H   0  0  0  0  0
   39.7336  -49.5561   64.6936 O   0  0  0  0  0
   42.5083  -49.6593   63.9767 H   0  0  0  0  0
   44.0262  -51.5576   64.9740 O   0  0  0  0  0
   43.2914  -51.9084   67.3500 H   0  0  0  0  0
   41.7648  -52.4857   66.6264 H   0  0  0  0  0
  1  2  1  0  0  0
  1 55  1  0  0  0
  1 61  1  0  0  0
  1 62  1  0  0  0
  2  3  1  0  0  0
  2 60  2  0  0  0
  3  4  1  0  0  0
  3  7  1  0  0  0
  3 59  1  0  0  0
  4  5  1  0  0  0
  4  6  1  0  0  0
  7  8  1  0  0  0
  7 58  2  0  0  0
  8  9  1  0  0  0
  8 55  1  0  0  0
  8 57  1  0  0  0
  9 10  1  0  0  0
  9 54  2  0  0  0
 10 11  1  0  0  0
 10 14  2  0  0  0
 11 12  1  0  0  0
 11 13  1  0  0  0
 14 15  1  0  0  0
 14 53  1  0  0  0
 15 16  1  0  0  0
 15 21  1  0  0  0
 15 52  1  0  0  0
 16 17  1  0  0  0
 17 18  1  0  0  0
 17 19  1  0  0  0
 17 20  1  0  0  0
 21 22  1  0  0  0
 21 51  2  0  0  0
 22 23  1  0  0  0
 22 26  1  0  0  0
 22 50  1  0  0  0
 23 24  1  0  0  0
 23 25  1  0  0  0
 26 27  1  0  0  0
 26 29  1  0  0  0
 26 49  1  0  0  0
 27 28  1  0  0  0
 29 30  1  0  0  0
 29 44  1  0  0  0
 29 48  1  0  0  0
 30 31  1  0  0  0
 30 33  1  0  0  0
 30 43  1  0  0  0
 31 32  1  0  0  0
 33 34  1  0  0  0
 33 41  1  0  0  0
 33 42  1  0  0  0
 34 35  1  0  0  0
 34 39  1  0  0  0
 34 40  1  0  0  0
 35 36  1  0  0  0
 35 37  1  0  0  0
 35 38  1  0  0  0
 44 45  1  0  0  0
 44 46  1  0  0  0
 44 47  1  0  0  0
 55 56  2  0  0  0
M  END
> <# Confs.>
25

> <Pharmacophore Match>
(1YET) [A] GDM275

> <Matching Features>
||H:495067334351321757||HBA:495067246627921590|HBA:495067385280122077|HBA:495067408768422079|HBA:495067414144822081

> <Relative Pharmacophore-Fit Score>
0.60

> <Score>
0.60338783

> <Source Database>
conformers.ldb

> <Active/Decoy>
unknown

> <Mol. Index>
50

$$$$
46
XX    ILIB11282304113D

 55 55  0  0  1  0              1 V2000
   41.7887  -46.5053   67.0937 N   0  0  0  0  0
   41.4550  -45.1736   67.1646 C   0  0  0  0  0
   41.6240  -44.3941   68.4252 C   0  0  0  0  0
   40.9217  -44.8687   69.6932 C   0  0  0  0  0
   40.5749  -43.7213   70.4519 O   0  0  0  0  0
   39.9397  -43.1985   69.9330 H   0  0  0  0  0
   39.6438  -45.6796   69.5394 C   0  0  0  0  0
   39.3516  -46.8010   70.5434 C   0  0  0  0  0
   39.2750  -46.2190   71.9565 C   0  0  0  0  0
   38.2036  -45.1543   72.2039 C   0  0  0  0  0
   36.5699  -45.7866   71.8925 Cl  0  0  0  0  0
   38.2338  -44.8179   73.2447 H   0  0  0  0  0
   38.3555  -44.2842   71.5584 H   0  0  0  0  0
   39.1515  -47.0324   72.6845 H   0  0  0  0  0
   40.2456  -45.7540   72.1790 H   0  0  0  0  0
   40.3726  -47.9519   70.4402 C   0  0  0  0  0
   40.2404  -48.7414   69.1321 C   0  0  0  0  0
   39.2606  -49.7548   69.3139 O   0  0  0  0  0
   39.1388  -50.1988   68.4571 H   0  0  0  0  0
   41.5653  -49.4094   68.7834 C   0  0  0  0  0
   42.4705  -48.7088   67.7860 C   0  0  0  0  0
   42.5821  -47.2137   67.9860 C   0  0  0  0  0
   43.2877  -46.7427   68.8742 O   0  0  0  0  0
   42.1074  -48.9502   66.7826 H   0  0  0  0  0
   43.4797  -49.1279   67.8758 H   0  0  0  0  0
   41.8686  -50.5130   69.2362 O   0  0  0  0  0
   39.9147  -48.1198   68.2936 H   0  0  0  0  0
   40.2206  -48.6428   71.2781 H   0  0  0  0  0
   41.3873  -47.5598   70.5546 H   0  0  0  0  0
   38.3576  -47.1968   70.2899 H   0  0  0  0  0
   38.8237  -45.4174   68.6555 O   0  0  0  0  0
   41.6536  -45.4276   70.2769 H   0  0  0  0  0
   42.3184  -43.3759   68.4197 O   0  0  0  0  0
   40.8691  -44.4999   66.1626 C   0  0  0  0  0
   40.5247  -45.0109   64.8083 C   0  0  0  0  0
   39.2278  -45.5786   64.8441 O   0  0  0  0  0
   39.0602  -45.9887   63.9786 H   0  0  0  0  0
   40.5688  -43.8745   63.8143 C   0  0  0  0  0
   41.8588  -43.0980   63.6517 C   0  0  0  0  0
   43.1147  -43.9002   63.8827 C   0  0  0  0  0
   44.1321  -43.1356   64.3570 O   0  0  0  0  0
   43.9167  -42.1891   64.4917 H   0  0  0  0  0
   43.2230  -45.1052   63.6966 O   0  0  0  0  0
   41.9158  -42.4213   62.2788 C   0  0  0  0  0
   41.8336  -43.4151   61.1287 C   0  0  0  0  0
   40.8992  -43.9841   61.1558 H   0  0  0  0  0
   42.6686  -44.1218   61.1642 H   0  0  0  0  0
   41.8779  -42.8866   60.1705 H   0  0  0  0  0
   41.0999  -41.6955   62.1820 H   0  0  0  0  0
   42.8528  -41.8585   62.1872 H   0  0  0  0  0
   41.8379  -42.3289   64.4365 H   0  0  0  0  0
   39.5638  -43.5496   63.1734 O   0  0  0  0  0
   41.2278  -45.7996   64.4740 H   0  0  0  0  0
   40.5833  -43.4572   66.3325 H   0  0  0  0  0
   41.4361  -47.0119   66.2868 H   0  0  0  0  0
  1  2  1  0  0  0
  1 22  1  0  0  0
  1 55  1  0  0  0
  2  3  1  0  0  0
  2 34  2  0  0  0
  3  4  1  0  0  0
  3 33  2  0  0  0
  4  5  1  0  0  0
  4  7  1  0  0  0
  4 32  1  0  0  0
  5  6  1  0  0  0
  7  8  1  0  0  0
  7 31  2  0  0  0
  8  9  1  0  0  0
  8 16  1  0  0  0
  8 30  1  0  0  0
  9 10  1  0  0  0
  9 14  1  0  0  0
  9 15  1  0  0  0
 10 11  1  0  0  0
 10 12  1  0  0  0
 10 13  1  0  0  0
 16 17  1  0  0  0
 16 28  1  0  0  0
 16 29  1  0  0  0
 17 18  1  0  0  0
 17 20  1  0  0  0
 17 27  1  0  0  0
 18 19  1  0  0  0
 20 21  1  0  0  0
 20 26  2  0  0  0
 21 22  1  0  0  0
 21 24  1  0  0  0
 21 25  1  0  0  0
 22 23  2  0  0  0
 34 35  1  0  0  0
 34 54  1  0  0  0
 35 36  1  0  0  0
 35 38  1  0  0  0
 35 53  1  0  0  0
 36 37  1  0  0  0
 38 39  1  0  0  0
 38 52  2  0  0  0
 39 40  1  0  0  0
 39 44  1  0  0  0
 39 51  1  0  0  0
 40 41  1  0  0  0
 40 43  2  0  0  0
 41 42  1  0  0  0
 44 45  1  0  0  0
 44 49  1  0  0  0
 44 50  1  0  0  0
 45 46  1  0  0  0
 45 47  1  0  0  0
 45 48  1  0  0  0
M  END
> <# Confs.>
25

> <Pharmacophore Match>
(1YET) [A] GDM275

> <Matching Features>
||||HBA:495067246627921590|HBA:495067385280122077|HBA:495067408768422079|HBA:495067414144822081

> <Relative Pharmacophore-Fit Score>
0.49

> <Score>
0.49374583

> <Source Database>
conformers.ldb

> <Active/Decoy>
unknown

> <Mol. Index>
52

$$$$
109
XX    ILIB11282304113D

 60 60  0  0  1  0              1 V2000
   42.8434  -43.3111   63.1445 C   0  0  0  0  0
   42.0594  -44.1162   64.1426 C   0  0  0  0  0
   41.8403  -43.6638   65.2790 O   0  0  0  0  0
   41.5437  -45.4713   63.7269 C   0  0  0  0  0
   40.3426  -45.8357   64.4033 O   0  0  0  0  0
   39.2053  -45.1753   64.0062 C   0  0  0  0  0
   39.1292  -44.3393   63.1156 O   0  0  0  0  0
   38.0444  -45.6080   64.8715 C   0  0  0  0  0
   36.9068  -44.8452   64.5231 O   0  0  0  0  0
   36.6865  -45.0370   63.5964 H   0  0  0  0  0
   37.6677  -47.0721   64.7407 C   0  0  0  0  0
   37.8841  -47.6966   63.7003 O   0  0  0  0  0
   37.0276  -47.7662   65.9396 C   0  0  0  0  0
   38.0413  -47.9749   67.0661 C   0  0  0  0  0
   38.0629  -47.2560   68.0652 O   0  0  0  0  0
   39.0209  -49.1254   66.8790 C   0  0  0  0  0
   38.2838  -50.2466   67.3333 O   0  0  0  0  0
   38.6597  -51.4490   66.6712 C   0  0  0  0  0
   38.4699  -51.3665   65.5972 H   0  0  0  0  0
   38.0546  -52.2644   67.0712 H   0  0  0  0  0
   39.7152  -51.6747   66.8525 H   0  0  0  0  0
   40.3085  -48.9620   67.6937 C   0  0  0  0  0
   41.2031  -47.8062   67.2351 C   0  0  0  0  0
   42.2421  -47.6312   68.1909 O   0  0  0  0  0
   42.7061  -48.4804   68.2908 H   0  0  0  0  0
   41.8846  -48.0343   65.8904 C   0  0  0  0  0
   42.8464  -46.9558   65.4154 C   0  0  0  0  0
   42.6262  -46.5550   63.9547 C   0  0  0  0  0
   43.5779  -46.1925   63.5473 H   0  0  0  0  0
   42.3538  -47.4429   63.3707 H   0  0  0  0  0
   43.8519  -47.3770   65.5308 H   0  0  0  0  0
   42.7903  -46.0869   66.0758 H   0  0  0  0  0
   41.6885  -49.0460   65.2170 O   0  0  0  0  0
   40.6366  -46.8717   67.1791 H   0  0  0  0  0
   40.0605  -48.8302   68.7559 H   0  0  0  0  0
   40.8818  -49.8972   67.6685 H   0  0  0  0  0
   39.2363  -49.2256   65.8102 H   0  0  0  0  0
   35.7749  -47.0337   66.4072 C   0  0  0  0  0
   35.1230  -47.7160   67.6067 C   0  0  0  0  0
   34.6377  -49.3844   67.2237 Cl  0  0  0  0  0
   35.8074  -47.7541   68.4592 H   0  0  0  0  0
   34.2245  -47.1740   67.9093 H   0  0  0  0  0
   35.0553  -46.9613   65.5807 H   0  0  0  0  0
   36.0336  -46.0013   66.6783 H   0  0  0  0  0
   36.7151  -48.7636   65.5984 H   0  0  0  0  0
   38.3035  -45.3737   65.9085 H   0  0  0  0  0
   41.3552  -45.4291   62.6465 H   0  0  0  0  0
   44.3395  -43.6170   63.2636 C   0  0  0  0  0
   44.7961  -43.2867   64.5748 O   0  0  0  0  0
   44.6427  -42.3367   64.7125 H   0  0  0  0  0
   45.1783  -42.8387   62.2563 C   0  0  0  0  0
   46.2412  -43.0586   62.4002 H   0  0  0  0  0
   45.0606  -41.7586   62.4009 H   0  0  0  0  0
   44.9098  -43.0848   61.2252 H   0  0  0  0  0
   44.5211  -44.6884   63.1193 H   0  0  0  0  0
   42.5206  -41.8291   63.3207 C   0  0  0  0  0
   42.9278  -41.4371   64.2594 H   0  0  0  0  0
   42.9327  -41.2351   62.4993 H   0  0  0  0  0
   41.4379  -41.6664   63.3375 H   0  0  0  0  0
   42.4881  -43.6292   62.1547 H   0  0  0  0  0
  1  2  1  0  0  0
  1 48  1  0  0  0
  1 56  1  0  0  0
  1 60  1  0  0  0
  2  3  2  0  0  0
  2  4  1  0  0  0
  4  5  1  0  0  0
  4 28  1  0  0  0
  4 47  1  0  0  0
  5  6  1  0  0  0
  6  7  2  0  0  0
  6  8  1  0  0  0
  8  9  1  0  0  0
  8 11  1  0  0  0
  8 46  1  0  0  0
  9 10  1  0  0  0
 11 12  2  0  0  0
 11 13  1  0  0  0
 13 14  1  0  0  0
 13 38  1  0  0  0
 13 45  1  0  0  0
 14 15  2  0  0  0
 14 16  1  0  0  0
 16 17  1  0  0  0
 16 22  1  0  0  0
 16 37  1  0  0  0
 17 18  1  0  0  0
 18 19  1  0  0  0
 18 20  1  0  0  0
 18 21  1  0  0  0
 22 23  1  0  0  0
 22 35  1  0  0  0
 22 36  1  0  0  0
 23 24  1  0  0  0
 23 26  1  0  0  0
 23 34  1  0  0  0
 24 25  1  0  0  0
 26 27  1  0  0  0
 26 33  2  0  0  0
 27 28  1  0  0  0
 27 31  1  0  0  0
 27 32  1  0  0  0
 28 29  1  0  0  0
 28 30  1  0  0  0
 38 39  1  0  0  0
 38 43  1  0  0  0
 38 44  1  0  0  0
 39 40  1  0  0  0
 39 41  1  0  0  0
 39 42  1  0  0  0
 48 49  1  0  0  0
 48 51  1  0  0  0
 48 55  1  0  0  0
 49 50  1  0  0  0
 51 52  1  0  0  0
 51 53  1  0  0  0
 51 54  1  0  0  0
 56 57  1  0  0  0
 56 58  1  0  0  0
 56 59  1  0  0  0
M  END
> <# Confs.>
25

> <Pharmacophore Match>
(1YET) [A] GDM275

> <Matching Features>
|H:495067279551021655|||HBA:495067246627921590|HBA:495067385280122077|HBA:495067408768422079|HBA:495067414144822081

> <Relative Pharmacophore-Fit Score>
0.61

> <Score>
0.61288446

> <Source Database>
conformers.ldb

> <Active/Decoy>
unknown

> <Mol. Index>
110

$$$$
115
XX    ILIB11282304113D

 48 48  0  0  1  0              1 V2000
   40.4022  -44.1735   65.1772 C   0  0  0  0  0
   40.7835  -43.9950   63.7169 C   0  0  0  0  0
   42.2708  -43.7902   63.4216 C   0  0  0  0  0
   42.4273  -43.3446   62.0386 N   0  0  0  0  0
   41.9721  -44.0017   61.4059 H   0  0  0  0  0
   41.9500  -42.4528   61.9110 H   0  0  0  0  0
   42.9631  -45.1025   63.6620 C   0  0  0  0  0
   43.8955  -45.3112   64.6049 C   0  0  0  0  0
   44.3517  -46.7160   64.8388 C   0  0  0  0  0
   44.7211  -47.1546   66.2553 C   0  0  0  0  0
   44.3666  -46.2304   67.2599 O   0  0  0  0  0
   44.9319  -46.4008   68.0324 H   0  0  0  0  0
   44.0687  -48.4586   66.6581 C   0  0  0  0  0
   42.7126  -48.2879   66.7172 O   0  0  0  0  0
   41.9562  -49.3219   67.2044 C   0  0  0  0  0
   40.4912  -48.9336   67.1474 C   0  0  0  0  0
   39.7389  -49.6484   68.1018 O   0  0  0  0  0
   39.6588  -48.9999   69.3539 C   0  0  0  0  0
   39.1605  -48.0431   69.2602 H   0  0  0  0  0
   40.6722  -48.8644   69.7742 H   0  0  0  0  0
   39.0945  -49.6389   70.0384 H   0  0  0  0  0
   39.9988  -49.3139   65.7804 C   0  0  0  0  0
   39.6622  -48.4990   64.7630 C   0  0  0  0  0
   39.7059  -47.0475   64.8208 C   0  0  0  0  0
   38.8528  -46.2581   65.4986 C   0  0  0  0  0
   39.0240  -44.7638   65.4090 C   0  0  0  0  0
   38.0445  -44.0267   65.5399 O   0  0  0  0  0
   37.7865  -46.6726   66.2458 N   0  0  0  0  0
   37.5831  -47.6594   66.3406 H   0  0  0  0  0
   37.1929  -45.9899   66.6993 H   0  0  0  0  0
   40.4781  -46.6249   64.1882 H   0  0  0  0  0
   39.2536  -49.0480   63.4240 C   0  0  0  0  0
   39.9380  -48.7055   62.6395 H   0  0  0  0  0
   39.2582  -50.1433   63.4074 H   0  0  0  0  0
   38.2402  -48.7196   63.1668 H   0  0  0  0  0
   39.9404  -50.3889   65.6068 H   0  0  0  0  0
   40.3849  -47.8495   67.3486 H   0  0  0  0  0
   42.3606  -50.3889   67.6386 O   0  0  0  0  0
   44.6982  -49.4829   66.8879 O   0  0  0  0  0
   45.8097  -47.2778   66.2742 H   0  0  0  0  0
   44.4046  -47.5196   63.9065 O   0  0  0  0  0
   44.3715  -44.2896   65.3967 O   0  0  0  0  0
   45.0612  -44.6570   65.9746 H   0  0  0  0  0
   42.6105  -45.9407   63.0624 H   0  0  0  0  0
   42.6377  -42.9962   64.0796 H   0  0  0  0  0
   39.9290  -44.0120   62.8315 O   0  0  0  0  0
   40.4336  -43.1884   65.6566 H   0  0  0  0  0
   41.1371  -44.7943   65.6974 H   0  0  0  0  0
  1  2  1  0  0  0
  1 26  1  0  0  0
  1 47  1  0  0  0
  1 48  1  0  0  0
  2  3  1  0  0  0
  2 46  2  0  0  0
  3  4  1  0  0  0
  3  7  1  0  0  0
  3 45  1  0  0  0
  4  5  1  0  0  0
  4  6  1  0  0  0
  7  8  2  0  0  0
  7 44  1  0  0  0
  8  9  1  0  0  0
  8 42  1  0  0  0
  9 10  1  0  0  0
  9 41  2  0  0  0
 10 11  1  0  0  0
 10 13  1  0  0  0
 10 40  1  0  0  0
 11 12  1  0  0  0
 13 14  1  0  0  0
 13 39  2  0  0  0
 14 15  1  0  0  0
 15 16  1  0  0  0
 15 38  2  0  0  0
 16 17  1  0  0  0
 16 22  1  0  0  0
 16 37  1  0  0  0
 17 18  1  0  0  0
 18 19  1  0  0  0
 18 20  1  0  0  0
 18 21  1  0  0  0
 22 23  2  0  0  0
 22 36  1  0  0  0
 23 24  1  0  0  0
 23 32  1  0  0  0
 24 25  2  0  0  0
 24 31  1  0  0  0
 25 26  1  0  0  0
 25 28  1  0  0  0
 26 27  2  0  0  0
 28 29  1  0  0  0
 28 30  1  0  0  0
 32 33  1  0  0  0
 32 34  1  0  0  0
 32 35  1  0  0  0
 42 43  1  0  0  0
M  END
> <# Confs.>
25

> <Pharmacophore Match>
(1YET) [A] GDM275

> <Matching Features>
|||H:495067340233021826|HBA:495067246627921590|HBA:495067385280122077|HBA:495067408768422079|HBA:495067414144822081

> <Relative Pharmacophore-Fit Score>
0.61

> <Score>
0.6061246

> <Source Database>
conformers.ldb

> <Active/Decoy>
unknown

> <Mol. Index>
113

$$$$
139
XX    ILIB11282304113D

 76 75  0  0  1  0              1 V2000
   40.5710  -48.9768   68.0059 C   0  0  0  0  0
   39.9162  -50.0882   68.4131 O   0  0  0  0  0
   40.5073  -50.7101   68.8890 H   0  0  0  0  0
   41.7558  -48.7597   68.2077 O   0  0  0  0  0
   39.6494  -48.0796   67.2874 C   0  0  0  0  0
   38.5064  -48.6668   66.5321 C   0  0  0  0  0
   37.2405  -48.7427   67.3739 C   0  0  0  0  0
   37.3854  -49.3734   68.2565 H   0  0  0  0  0
   36.4235  -49.1692   66.7836 H   0  0  0  0  0
   36.9317  -47.7484   67.7100 H   0  0  0  0  0
   38.7737  -49.6726   66.1845 H   0  0  0  0  0
   38.2995  -48.0711   65.6344 H   0  0  0  0  0
   39.9536  -46.7674   67.3356 C   0  0  0  0  0
   39.1829  -45.6494   66.7024 C   0  0  0  0  0
   38.7558  -44.7487   67.7261 O   0  0  0  0  0
   38.2013  -45.2474   68.3480 H   0  0  0  0  0
   39.9885  -44.8548   65.6717 C   0  0  0  0  0
   39.2667  -43.6945   64.9822 C   0  0  0  0  0
   38.1174  -44.1551   64.2716 O   0  0  0  0  0
   37.0901  -43.1738   64.2069 C   0  0  0  0  0
   36.2385  -43.6016   63.6715 H   0  0  0  0  0
   37.4388  -42.2931   63.6593 H   0  0  0  0  0
   36.7639  -42.8883   65.2120 H   0  0  0  0  0
   40.1561  -43.0284   63.9475 C   0  0  0  0  0
   39.8322  -42.9815   62.7585 O   0  0  0  0  0
   41.4699  -42.4230   64.4037 C   0  0  0  0  0
   42.2482  -41.7799   63.2831 C   0  0  0  0  0
   42.5221  -40.5800   63.2679 O   0  0  0  0  0
   42.6906  -42.6675   62.1210 C   0  0  0  0  0
   43.3948  -41.8565   61.1999 O   0  0  0  0  0
   43.4620  -42.3524   60.3652 H   0  0  0  0  0
   43.5846  -43.8112   62.5364 C   0  0  0  0  0
   43.5431  -45.0967   61.7296 C   0  0  0  0  0
   44.8677  -45.8330   61.7317 C   0  0  0  0  0
   45.9087  -45.5776   60.6985 C   0  0  0  0  0
   46.7617  -46.5950   60.3300 O   0  0  0  0  0
   46.5982  -47.3661   60.8951 H   0  0  0  0  0
   45.9715  -44.3518   60.1482 C   0  0  0  0  0
   46.9027  -43.8329   59.0858 C   0  0  0  0  0
   47.7255  -42.6985   59.5159 N   0  0  0  0  0
   48.2535  -42.9423   60.3526 H   0  0  0  0  0
   47.1361  -41.9024   59.7525 H   0  0  0  0  0
   46.1135  -43.4462   57.8224 C   0  0  0  0  0
   45.4283  -44.5939   57.3208 O   0  0  0  0  0
   46.0921  -45.2302   57.0049 H   0  0  0  0  0
   46.8690  -42.7709   56.6756 C   0  0  0  0  0
   47.9861  -43.6822   56.1583 C   0  0  0  0  0
   48.5698  -43.1768   55.3830 H   0  0  0  0  0
   47.5865  -44.6078   55.7286 H   0  0  0  0  0
   48.6721  -43.9518   56.9670 H   0  0  0  0  0
   45.9536  -42.3762   55.5119 C   0  0  0  0  0
   45.1840  -41.6692   55.8357 H   0  0  0  0  0
   45.4528  -43.2481   55.0788 H   0  0  0  0  0
   46.5289  -41.8918   54.7168 H   0  0  0  0  0
   47.3363  -41.8569   57.0621 H   0  0  0  0  0
   45.3312  -42.7474   58.1458 H   0  0  0  0  0
   47.5812  -44.6582   58.8347 H   0  0  0  0  0
   45.2537  -43.6001   60.4802 H   0  0  0  0  0
   45.1042  -46.6839   62.5939 O   0  0  0  0  0
   42.4392  -46.0348   62.2057 C   0  0  0  0  0
   42.4328  -46.9620   61.6228 H   0  0  0  0  0
   41.4564  -45.5625   62.1039 H   0  0  0  0  0
   42.5680  -46.3043   63.2607 H   0  0  0  0  0
   43.3236  -44.8060   60.6948 H   0  0  0  0  0
   44.3349  -43.7168   63.5107 O   0  0  0  0  0
   41.7985  -43.0568   61.6120 H   0  0  0  0  0
   41.2502  -41.3760   65.5073 C   0  0  0  0  0
   42.2009  -40.9294   65.8165 H   0  0  0  0  0
   40.7883  -41.8351   66.3882 H   0  0  0  0  0
   40.5935  -40.5646   65.1756 H   0  0  0  0  0
   42.0671  -43.2282   64.8166 H   0  0  0  0  0
   38.9548  -42.9245   65.7005 H   0  0  0  0  0
   40.9120  -44.4828   66.1334 H   0  0  0  0  0
   40.2998  -45.5527   64.8834 H   0  0  0  0  0
   38.2763  -46.0342   66.2193 H   0  0  0  0  0
   40.8314  -46.4448   67.8948 H   0  0  0  0  0
  1  2  1  0  0  0
  1  4  2  0  0  0
  1  5  1  0  0  0
  2  3  1  0  0  0
  5  6  1  0  0  0
  5 13  2  0  0  0
  6  7  1  0  0  0
  6 11  1  0  0  0
  6 12  1  0  0  0
  7  8  1  0  0  0
  7  9  1  0  0  0
  7 10  1  0  0  0
 13 14  1  0  0  0
 13 76  1  0  0  0
 14 15  1  0  0  0
 14 17  1  0  0  0
 14 75  1  0  0  0
 15 16  1  0  0  0
 17 18  1  0  0  0
 17 73  1  0  0  0
 17 74  1  0  0  0
 18 19  1  0  0  0
 18 24  1  0  0  0
 18 72  1  0  0  0
 19 20  1  0  0  0
 20 21  1  0  0  0
 20 22  1  0  0  0
 20 23  1  0  0  0
 24 25  2  0  0  0
 24 26  1  0  0  0
 26 27  1  0  0  0
 26 67  1  0  0  0
 26 71  1  0  0  0
 27 28  2  0  0  0
 27 29  1  0  0  0
 29 30  1  0  0  0
 29 32  1  0  0  0
 29 66  1  0  0  0
 30 31  1  0  0  0
 32 33  1  0  0  0
 32 65  2  0  0  0
 33 34  1  0  0  0
 33 60  1  0  0  0
 33 64  1  0  0  0
 34 35  1  0  0  0
 34 59  2  0  0  0
 35 36  1  0  0  0
 35 38  2  0  0  0
 36 37  1  0  0  0
 38 39  1  0  0  0
 38 58  1  0  0  0
 39 40  1  0  0  0
 39 43  1  0  0  0
 39 57  1  0  0  0
 40 41  1  0  0  0
 40 42  1  0  0  0
 43 44  1  0  0  0
 43 46  1  0  0  0
 43 56  1  0  0  0
 44 45  1  0  0  0
 46 47  1  0  0  0
 46 51  1  0  0  0
 46 55  1  0  0  0
 47 48  1  0  0  0
 47 49  1  0  0  0
 47 50  1  0  0  0
 51 52  1  0  0  0
 51 53  1  0  0  0
 51 54  1  0  0  0
 60 61  1  0  0  0
 60 62  1  0  0  0
 60 63  1  0  0  0
 67 68  1  0  0  0
 67 69  1  0  0  0
 67 70  1  0  0  0
M  END
> <# Confs.>
25

> <Pharmacophore Match>
(1YET) [A] GDM275

> <Matching Features>
||||HBA:495067246627921590|HBA:495067385280122077|HBA:495067408768422079|HBA:495067414144822081

> <Relative Pharmacophore-Fit Score>
0.50

> <Score>
0.50095856

> <Source Database>
conformers.ldb

> <Active/Decoy>
unknown

> <Mol. Index>
126

$$$$
138
XX    ILIB11282304113D

 66 66  0  0  1  0              1 V2000
   44.7295  -46.8774   66.6295 C   0  0  0  0  0
   46.0831  -46.7758   66.5210 N   0  0  0  0  0
   46.6764  -47.2000   67.2215 H   0  0  0  0  0
   46.5019  -46.2600   65.7571 H   0  0  0  0  0
   43.8034  -46.3452   65.8127 C   0  0  0  0  0
   44.0518  -45.5763   64.5391 C   0  0  0  0  0
   43.5871  -44.1172   64.6690 C   0  0  0  0  0
   44.5826  -43.3690   65.3795 O   0  0  0  0  0
   45.4246  -43.4622   64.9044 H   0  0  0  0  0
   43.2803  -43.4054   63.3272 C   0  0  0  0  0
   44.4660  -43.3748   62.4567 N   0  0  0  0  0
   45.2484  -42.9500   62.9510 H   0  0  0  0  0
   44.7541  -44.3253   62.2273 H   0  0  0  0  0
   42.1034  -44.0131   62.5202 C   0  0  0  0  0
   41.8282  -43.1621   61.4039 O   0  0  0  0  0
   41.5693  -42.2914   61.7509 H   0  0  0  0  0
   40.8111  -44.1846   63.3452 C   0  0  0  0  0
   39.6734  -44.8636   62.5673 C   0  0  0  0  0
   39.1042  -43.9154   61.6454 O   0  0  0  0  0
   39.8072  -43.6495   61.0283 H   0  0  0  0  0
   38.5118  -45.3687   63.4433 C   0  0  0  0  0
   38.3424  -44.6565   64.6486 O   0  0  0  0  0
   37.4218  -43.5720   64.5031 C   0  0  0  0  0
   37.8330  -42.8170   63.8151 H   0  0  0  0  0
   36.4547  -43.9172   64.1454 H   0  0  0  0  0
   37.2936  -43.1020   65.4807 H   0  0  0  0  0
   38.6980  -46.8549   63.8113 C   0  0  0  0  0
   39.7502  -47.2234   64.8443 C   0  0  0  0  0
   40.8660  -47.8452   64.1403 N   0  0  0  0  0
   40.5434  -48.6577   63.6158 H   0  0  0  0  0
   41.2522  -47.1958   63.4567 H   0  0  0  0  0
   39.2959  -48.2220   65.8960 C   0  0  0  0  0
   39.7489  -47.9609   67.3214 C   0  0  0  0  0
   38.6644  -47.2473   67.8821 O   0  0  0  0  0
   39.0709  -46.3400   68.8987 C   0  0  0  0  0
   39.5784  -46.8687   69.7100 H   0  0  0  0  0
   38.1785  -45.8549   69.3047 H   0  0  0  0  0
   39.7264  -45.5695   68.4817 H   0  0  0  0  0
   40.0389  -49.2379   68.1088 C   0  0  0  0  0
   41.3897  -49.9095   67.9002 C   0  0  0  0  0
   41.5164  -50.1851   66.5189 O   0  0  0  0  0
   41.0103  -51.4659   66.1662 C   0  0  0  0  0
   41.5329  -52.2555   66.7152 H   0  0  0  0  0
   41.1749  -51.6189   65.0960 H   0  0  0  0  0
   39.9349  -51.5182   66.3632 H   0  0  0  0  0
   42.5307  -49.0820   68.4778 C   0  0  0  0  0
   43.1620  -48.3848   67.4886 O   0  0  0  0  0
   44.2398  -47.6225   67.8275 C   0  0  0  0  0
   44.8004  -47.5662   68.9137 O   0  0  0  0  0
   42.7746  -49.0416   69.6767 O   0  0  0  0  0
   41.3662  -50.8617   68.4463 H   0  0  0  0  0
   39.2238  -49.7015   68.9071 O   0  0  0  0  0
   40.6486  -47.3366   67.3104 H   0  0  0  0  0
   38.5984  -49.1974   65.6143 O   0  0  0  0  0
   40.0832  -46.3231   65.3635 H   0  0  0  0  0
   38.0307  -47.7205   63.2391 O   0  0  0  0  0
   37.5692  -45.3428   62.8769 H   0  0  0  0  0
   40.0577  -45.6829   61.9561 H   0  0  0  0  0
   41.0362  -44.7881   64.2228 H   0  0  0  0  0
   40.4836  -43.1942   63.6838 H   0  0  0  0  0
   42.3919  -44.9871   62.1087 H   0  0  0  0  0
   43.0484  -42.3551   63.5448 H   0  0  0  0  0
   42.6961  -44.0600   65.3016 H   0  0  0  0  0
   43.4926  -46.0923   63.7526 H   0  0  0  0  0
   45.1085  -45.6198   64.2577 H   0  0  0  0  0
   42.7478  -46.4627   66.0514 H   0  0  0  0  0
  1  2  1  0  0  0
  1  5  2  0  0  0
  1 48  1  0  0  0
  2  3  1  0  0  0
  2  4  1  0  0  0
  5  6  1  0  0  0
  5 66  1  0  0  0
  6  7  1  0  0  0
  6 64  1  0  0  0
  6 65  1  0  0  0
  7  8  1  0  0  0
  7 10  1  0  0  0
  7 63  1  0  0  0
  8  9  1  0  0  0
 10 11  1  0  0  0
 10 14  1  0  0  0
 10 62  1  0  0  0
 11 12  1  0  0  0
 11 13  1  0  0  0
 14 15  1  0  0  0
 14 17  1  0  0  0
 14 61  1  0  0  0
 15 16  1  0  0  0
 17 18  1  0  0  0
 17 59  1  0  0  0
 17 60  1  0  0  0
 18 19  1  0  0  0
 18 21  1  0  0  0
 18 58  1  0  0  0
 19 20  1  0  0  0
 21 22  1  0  0  0
 21 27  1  0  0  0
 21 57  1  0  0  0
 22 23  1  0  0  0
 23 24  1  0  0  0
 23 25  1  0  0  0
 23 26  1  0  0  0
 27 28  1  0  0  0
 27 56  2  0  0  0
 28 29  1  0  0  0
 28 32  1  0  0  0
 28 55  1  0  0  0
 29 30  1  0  0  0
 29 31  1  0  0  0
 32 33  1  0  0  0
 32 54  2  0  0  0
 33 34  1  0  0  0
 33 39  1  0  0  0
 33 53  1  0  0  0
 34 35  1  0  0  0
 35 36  1  0  0  0
 35 37  1  0  0  0
 35 38  1  0  0  0
 39 40  1  0  0  0
 39 52  2  0  0  0
 40 41  1  0  0  0
 40 46  1  0  0  0
 40 51  1  0  0  0
 41 42  1  0  0  0
 42 43  1  0  0  0
 42 44  1  0  0  0
 42 45  1  0  0  0
 46 47  1  0  0  0
 46 50  2  0  0  0
 47 48  1  0  0  0
 48 49  2  0  0  0
M  END
> <# Confs.>
25

> <Pharmacophore Match>
(1YET) [A] GDM275

> <Matching Features>
||||HBA:495067246627921590|HBA:495067385280122077|HBA:495067408768422079|HBA:495067414144822081

> <Relative Pharmacophore-Fit Score>
0.50

> <Score>
0.49903837

> <Source Database>
conformers.ldb

> <Active/Decoy>
unknown

> <Mol. Index>
136

$$$$
108
XX    ILIB11282304113D

 60 60  0  0  1  0              1 V2000
   37.6495  -46.9545   67.6597 O   0  0  0  0  0
   38.6206  -46.5965   68.6395 C   0  0  0  0  0
   39.4511  -45.4664   68.0360 C   0  0  0  0  0
   40.6652  -45.6293   67.9043 O   0  0  0  0  0
   38.7677  -44.1814   67.6641 C   0  0  0  0  0
   39.4965  -43.5229   66.4850 C   0  0  0  0  0
   39.5777  -44.3335   65.1886 C   0  0  0  0  0
   38.2487  -44.5989   64.7576 O   0  0  0  0  0
   38.3030  -45.1893   63.9874 H   0  0  0  0  0
   40.2810  -43.5679   64.0788 C   0  0  0  0  0
   41.7225  -43.1122   64.2755 C   0  0  0  0  0
   42.6244  -43.7333   63.2028 C   0  0  0  0  0
   43.9765  -43.3145   63.3762 O   0  0  0  0  0
   44.3186  -43.7145   64.1927 H   0  0  0  0  0
   42.5777  -45.2575   63.2202 C   0  0  0  0  0
   41.5624  -45.6255   63.0546 H   0  0  0  0  0
   43.2277  -45.6638   62.4372 H   0  0  0  0  0
   42.9466  -45.6579   64.1706 H   0  0  0  0  0
   42.3099  -43.3855   62.2123 H   0  0  0  0  0
   41.7945  -41.5880   64.3436 C   0  0  0  0  0
   42.8067  -41.2549   64.5931 H   0  0  0  0  0
   41.1171  -41.2057   65.1148 H   0  0  0  0  0
   41.5074  -41.1182   63.3980 H   0  0  0  0  0
   42.0292  -43.5037   65.2556 H   0  0  0  0  0
   39.6787  -43.3387   63.0261 O   0  0  0  0  0
   40.0799  -45.2943   65.3434 H   0  0  0  0  0
   40.5320  -43.3154   66.7896 H   0  0  0  0  0
   39.0425  -42.5470   66.2679 H   0  0  0  0  0
   38.7757  -43.5132   68.5236 H   0  0  0  0  0
   37.7327  -44.3949   67.4061 H   0  0  0  0  0
   39.5124  -47.7918   69.0130 C   0  0  0  0  0
   39.9769  -48.6417   67.8143 C   0  0  0  0  0
   41.0575  -49.4762   68.1960 O   0  0  0  0  0
   42.3210  -48.8547   68.0037 C   0  0  0  0  0
   42.4843  -48.6217   66.9479 H   0  0  0  0  0
   43.0966  -49.5524   68.3288 H   0  0  0  0  0
   42.3973  -47.9461   68.6073 H   0  0  0  0  0
   38.8963  -49.6349   67.3996 C   0  0  0  0  0
   38.1767  -49.3912   66.0746 C   0  0  0  0  0
   36.6532  -49.4895   66.2193 C   0  0  0  0  0
   35.9225  -48.2927   66.8300 C   0  0  0  0  0
   34.6105  -48.6900   67.1836 O   0  0  0  0  0
   34.6800  -49.3911   67.8545 H   0  0  0  0  0
   36.5816  -47.7036   68.0561 C   0  0  0  0  0
   36.2388  -47.9183   69.2094 O   0  0  0  0  0
   35.8277  -47.5161   66.0642 H   0  0  0  0  0
   36.0311  -50.4831   65.8426 O   0  0  0  0  0
   38.7408  -50.3116   64.9869 C   0  0  0  0  0
   40.2319  -50.1640   64.6706 C   0  0  0  0  0
   40.6202  -48.5187   64.1146 Cl  0  0  0  0  0
   40.8452  -50.3726   65.5519 H   0  0  0  0  0
   40.5244  -50.8565   63.8764 H   0  0  0  0  0
   38.2006  -50.1092   64.0510 H   0  0  0  0  0
   38.5313  -51.3603   65.2375 H   0  0  0  0  0
   38.3804  -48.3680   65.7392 H   0  0  0  0  0
   38.6070  -50.5990   68.1116 O   0  0  0  0  0
   40.2746  -48.0333   66.9529 H   0  0  0  0  0
   40.3779  -47.4481   69.5915 H   0  0  0  0  0
   38.9524  -48.4397   69.7010 H   0  0  0  0  0
   38.1194  -46.1856   69.5319 H   0  0  0  0  0
  1  2  1  0  0  0
  1 44  1  0  0  0
  2  3  1  0  0  0
  2 31  1  0  0  0
  2 60  1  0  0  0
  3  4  2  0  0  0
  3  5  1  0  0  0
  5  6  1  0  0  0
  5 29  1  0  0  0
  5 30  1  0  0  0
  6  7  1  0  0  0
  6 27  1  0  0  0
  6 28  1  0  0  0
  7  8  1  0  0  0
  7 10  1  0  0  0
  7 26  1  0  0  0
  8  9  1  0  0  0
 10 11  1  0  0  0
 10 25  2  0  0  0
 11 12  1  0  0  0
 11 20  1  0  0  0
 11 24  1  0  0  0
 12 13  1  0  0  0
 12 15  1  0  0  0
 12 19  1  0  0  0
 13 14  1  0  0  0
 15 16  1  0  0  0
 15 17  1  0  0  0
 15 18  1  0  0  0
 20 21  1  0  0  0
 20 22  1  0  0  0
 20 23  1  0  0  0
 31 32  1  0  0  0
 31 58  1  0  0  0
 31 59  1  0  0  0
 32 33  1  0  0  0
 32 38  1  0  0  0
 32 57  1  0  0  0
 33 34  1  0  0  0
 34 35  1  0  0  0
 34 36  1  0  0  0
 34 37  1  0  0  0
 38 39  1  0  0  0
 38 56  2  0  0  0
 39 40  1  0  0  0
 39 48  1  0  0  0
 39 55  1  0  0  0
 40 41  1  0  0  0
 40 47  2  0  0  0
 41 42  1  0  0  0
 41 44  1  0  0  0
 41 46  1  0  0  0
 42 43  1  0  0  0
 44 45  2  0  0  0
 48 49  1  0  0  0
 48 53  1  0  0  0
 48 54  1  0  0  0
 49 50  1  0  0  0
 49 51  1  0  0  0
 49 52  1  0  0  0
M  END
> <# Confs.>
25

> <Pharmacophore Match>
(1YET) [A] GDM275

> <Matching Features>
|H:495067279551021655|H:495067334351321757|H:495067340233021826|HBA:495067246627921590|HBA:495067385280122077|HBA:495067408768422079|HBA:495067414144822081

> <Relative Pharmacophore-Fit Score>
0.84

> <Score>
0.8401566

> <Source Database>
conformers.ldb

> <Active/Decoy>
unknown

> <Mol. Index>
101

$$$$
162
XX    ILIB11282304113D

 99 99  0  0  1  0              1 V2000
   50.0400  -50.7007   65.9757 C   0  0  0  0  0
   49.1619  -51.3482   64.8707 C   0  0  0  0  0
   47.7234  -50.8636   64.9349 C   0  0  0  0  0
   46.8774  -51.2691   64.1356 O   0  0  0  0  0
   47.3549  -49.8695   65.9925 C   0  0  0  0  0
   46.9333  -50.3998   67.1797 N   0  0  0  0  0
   46.6793  -49.7873   67.9430 H   0  0  0  0  0
   46.9249  -51.4036   67.3169 H   0  0  0  0  0
   47.4548  -48.5480   65.7543 C   0  0  0  0  0
   47.8197  -47.7950   64.5040 C   0  0  0  0  0
   49.0143  -46.9767   64.7414 N   0  0  0  0  0
   49.2990  -46.5350   63.8672 H   0  0  0  0  0
   48.7835  -46.2080   65.3720 H   0  0  0  0  0
   46.6755  -46.8983   64.0261 C   0  0  0  0  0
   46.9250  -46.0774   62.7581 C   0  0  0  0  0
   45.7047  -45.2247   62.3881 C   0  0  0  0  0
   45.4258  -44.3293   63.4702 O   0  0  0  0  0
   46.1223  -43.6519   63.4834 H   0  0  0  0  0
   45.7520  -44.4181   61.0948 C   0  0  0  0  0
   46.8314  -43.5023   61.1429 O   0  0  0  0  0
   46.9100  -43.0942   60.2641 H   0  0  0  0  0
   44.4591  -43.6654   60.8220 C   0  0  0  0  0
   43.1721  -44.4528   60.6929 C   0  0  0  0  0
   43.3477  -45.3764   59.5606 N   0  0  0  0  0
   43.5486  -44.8537   58.7102 H   0  0  0  0  0
   44.1504  -45.9824   59.7239 H   0  0  0  0  0
   41.9390  -43.6126   60.4502 C   0  0  0  0  0
   41.1577  -43.1353   61.6696 C   0  0  0  0  0
   40.0415  -42.3635   61.2853 O   0  0  0  0  0
   39.4698  -42.9202   60.7087 H   0  0  0  0  0
   40.6636  -44.2634   62.5748 C   0  0  0  0  0
   40.5128  -43.9762   64.0581 C   0  0  0  0  0
   41.3988  -44.8920   64.8917 C   0  0  0  0  0
   42.7598  -44.6834   64.5179 O   0  0  0  0  0
   43.3035  -45.3098   65.0254 H   0  0  0  0  0
   41.2521  -44.6481   66.3651 C   0  0  0  0  0
   41.5836  -43.3553   66.7397 O   0  0  0  0  0
   41.4454  -43.2680   67.6971 H   0  0  0  0  0
   40.8221  -45.5396   67.2765 C   0  0  0  0  0
   40.4446  -46.9701   67.0392 C   0  0  0  0  0
   39.4531  -47.3009   67.9976 O   0  0  0  0  0
   38.1343  -47.0436   67.5334 C   0  0  0  0  0
   38.0214  -45.9900   67.2591 H   0  0  0  0  0
   37.4347  -47.2699   68.3429 H   0  0  0  0  0
   37.8936  -47.6832   66.6794 H   0  0  0  0  0
   41.6713  -47.8860   67.1704 C   0  0  0  0  0
   42.2048  -47.7510   68.4924 O   0  0  0  0  0
   41.5896  -48.1857   69.1044 H   0  0  0  0  0
   41.4993  -49.3777   66.8657 C   0  0  0  0  0
   41.0644  -49.5998   65.5333 O   0  0  0  0  0
   42.1450  -49.7479   64.6222 C   0  0  0  0  0
   42.7875  -48.8630   64.6388 H   0  0  0  0  0
   41.7326  -49.8602   63.6162 H   0  0  0  0  0
   42.7290  -50.6434   64.8569 H   0  0  0  0  0
   40.4377  -49.9927   67.7525 C   0  0  0  0  0
   40.7639  -49.8709   69.0646 O   0  0  0  0  0
   40.0717  -50.2455   69.6482 H   0  0  0  0  0
   39.3939  -50.4936   67.3604 O   0  0  0  0  0
   42.4302  -49.9357   67.0288 H   0  0  0  0  0
   42.4502  -47.4908   66.5035 H   0  0  0  0  0
   40.0234  -47.0634   66.0278 H   0  0  0  0  0
   40.7480  -45.2054   68.3127 H   0  0  0  0  0
   41.1508  -45.9318   64.6458 H   0  0  0  0  0
   39.4562  -44.1240   64.3119 H   0  0  0  0  0
   40.7337  -42.9186   64.2446 H   0  0  0  0  0
   40.3725  -45.3729   62.1199 O   0  0  0  0  0
   41.8164  -42.5031   62.2575 H   0  0  0  0  0
   41.5776  -43.3008   59.3200 O   0  0  0  0  0
   43.0121  -45.0460   61.5997 H   0  0  0  0  0
   44.4404  -42.4335   60.7481 O   0  0  0  0  0
   45.9164  -45.0908   60.2443 H   0  0  0  0  0
   44.8362  -45.8943   62.3380 H   0  0  0  0  0
   47.3902  -46.9657   61.5926 C   0  0  0  0  0
   46.6181  -47.6799   61.2886 H   0  0  0  0  0
   47.6480  -46.3600   60.7175 H   0  0  0  0  0
   48.2846  -47.5334   61.8661 H   0  0  0  0  0
   47.7575  -45.3951   62.9792 H   0  0  0  0  0
   46.3710  -46.2243   64.8369 H   0  0  0  0  0
   45.8085  -47.5421   63.8230 H   0  0  0  0  0
   48.0650  -48.5070   63.7054 H   0  0  0  0  0
   47.2016  -47.8882   66.5843 H   0  0  0  0  0
   49.6916  -50.9983   63.4942 C   0  0  0  0  0
   50.6055  -50.0475   63.2661 C   0  0  0  0  0
   51.1844  -49.2858   64.3413 C   0  0  0  0  0
   50.9466  -49.5689   65.6258 C   0  0  0  0  0
   51.5401  -48.8515   66.6398 O   0  0  0  0  0
   51.2422  -49.2372   67.4814 H   0  0  0  0  0
   51.8476  -48.4643   64.0881 H   0  0  0  0  0
   51.0260  -49.7546   61.9860 O   0  0  0  0  0
   51.6856  -49.0410   62.0285 H   0  0  0  0  0
   49.2875  -51.5350   62.6388 H   0  0  0  0  0
   49.1925  -52.8598   65.0870 C   0  0  0  0  0
   50.5840  -53.4770   65.0084 C   0  0  0  0  0
   51.0347  -53.3265   64.0238 H   0  0  0  0  0
   51.2536  -53.0545   65.7642 H   0  0  0  0  0
   50.5249  -54.5555   65.1838 H   0  0  0  0  0
   48.7657  -53.0946   66.0704 H   0  0  0  0  0
   48.5543  -53.3461   64.3394 H   0  0  0  0  0
   49.9844  -51.0692   67.1492 O   0  0  0  0  0
  1  2  1  0  0  0
  1 99  2  0  0  0
  1 85  1  0  0  0
  2  3  1  0  0  0
  2 82  1  0  0  0
  2 92  1  0  0  0
  3  4  2  0  0  0
  3  5  1  0  0  0
  5  6  1  0  0  0
  5  9  2  0  0  0
  6  7  1  0  0  0
  6  8  1  0  0  0
  9 10  1  0  0  0
  9 81  1  0  0  0
 10 11  1  0  0  0
 10 14  1  0  0  0
 10 80  1  0  0  0
 11 12  1  0  0  0
 11 13  1  0  0  0
 14 15  1  0  0  0
 14 78  1  0  0  0
 14 79  1  0  0  0
 15 16  1  0  0  0
 15 73  1  0  0  0
 15 77  1  0  0  0
 16 17  1  0  0  0
 16 19  1  0  0  0
 16 72  1  0  0  0
 17 18  1  0  0  0
 19 20  1  0  0  0
 19 22  1  0  0  0
 19 71  1  0  0  0
 20 21  1  0  0  0
 22 23  1  0  0  0
 22 70  2  0  0  0
 23 24  1  0  0  0
 23 27  1  0  0  0
 23 69  1  0  0  0
 24 25  1  0  0  0
 24 26  1  0  0  0
 27 28  1  0  0  0
 27 68  2  0  0  0
 28 29  1  0  0  0
 28 31  1  0  0  0
 28 67  1  0  0  0
 29 30  1  0  0  0
 31 32  1  0  0  0
 31 66  2  0  0  0
 32 33  1  0  0  0
 32 64  1  0  0  0
 32 65  1  0  0  0
 33 34  1  0  0  0
 33 36  1  0  0  0
 33 63  1  0  0  0
 34 35  1  0  0  0
 36 37  1  0  0  0
 36 39  2  0  0  0
 37 38  1  0  0  0
 39 40  1  0  0  0
 39 62  1  0  0  0
 40 41  1  0  0  0
 40 46  1  0  0  0
 40 61  1  0  0  0
 41 42  1  0  0  0
 42 43  1  0  0  0
 42 44  1  0  0  0
 42 45  1  0  0  0
 46 47  1  0  0  0
 46 49  1  0  0  0
 46 60  1  0  0  0
 47 48  1  0  0  0
 49 50  1  0  0  0
 49 55  1  0  0  0
 49 59  1  0  0  0
 50 51  1  0  0  0
 51 52  1  0  0  0
 51 53  1  0  0  0
 51 54  1  0  0  0
 55 56  1  0  0  0
 55 58  2  0  0  0
 56 57  1  0  0  0
 73 74  1  0  0  0
 73 75  1  0  0  0
 73 76  1  0  0  0
 82 83  2  0  0  0
 82 91  1  0  0  0
 83 84  1  0  0  0
 83 89  1  0  0  0
 84 85  2  0  0  0
 84 88  1  0  0  0
 85 86  1  0  0  0
 86 87  1  0  0  0
 89 90  1  0  0  0
 92 93  1  0  0  0
 92 97  1  0  0  0
 92 98  1  0  0  0
 93 94  1  0  0  0
 93 95  1  0  0  0
 93 96  1  0  0  0
M  END
> <# Confs.>
25

> <Pharmacophore Match>
(1YET) [A] GDM275

> <Matching Features>
||||HBA:495067246627921590|HBA:495067385280122077|HBA:495067408768422079|HBA:495067414144822081

> <Relative Pharmacophore-Fit Score>
0.50

> <Score>
0.4950632

> <Source Database>
conformers.ldb

> <Active/Decoy>
unknown

> <Mol. Index>
150

$$$$
153
XX    ILIB11282304113D

 87 87  0  0  1  0              1 V2000
   46.0459  -45.6394   64.0900 C   0  0  0  0  0
   44.6861  -45.6107   63.3692 C   0  0  0  0  0
   44.0782  -46.6530   63.1218 O   0  0  0  0  0
   44.1297  -44.2756   62.9573 C   0  0  0  0  0
   44.7938  -43.1354   63.3022 O   0  0  0  0  0
   45.7457  -42.6894   62.3542 C   0  0  0  0  0
   46.2164  -41.7825   62.7455 H   0  0  0  0  0
   45.2732  -42.4463   61.4059 H   0  0  0  0  0
   46.5391  -43.4435   62.2144 H   0  0  0  0  0
   42.9151  -44.2438   62.3494 C   0  0  0  0  0
   42.1309  -42.9824   62.0159 C   0  0  0  0  0
   40.6788  -43.0360   62.5857 C   0  0  0  0  0
   39.8991  -43.9492   61.8072 O   0  0  0  0  0
   38.9814  -43.8941   62.1226 H   0  0  0  0  0
   40.6338  -43.3822   64.0741 C   0  0  0  0  0
   40.9178  -42.2551   65.0088 C   0  0  0  0  0
   42.4051  -42.1170   65.2994 C   0  0  0  0  0
   42.8076  -43.0240   65.7636 H   0  0  0  0  0
   42.5788  -41.2823   65.9857 H   0  0  0  0  0
   42.9701  -41.9218   64.3826 H   0  0  0  0  0
   40.5479  -41.3126   64.5875 H   0  0  0  0  0
   40.3737  -42.4107   65.9488 H   0  0  0  0  0
   40.3862  -44.6411   64.4926 C   0  0  0  0  0
   40.5033  -45.1747   65.8953 C   0  0  0  0  0
   41.6079  -46.0750   65.8782 O   0  0  0  0  0
   42.3875  -45.5653   65.5990 H   0  0  0  0  0
   39.2366  -45.9065   66.3716 C   0  0  0  0  0
   38.9948  -47.0367   65.5341 O   0  0  0  0  0
   38.1889  -47.4710   65.8578 H   0  0  0  0  0
   39.2758  -46.3384   67.8631 C   0  0  0  0  0
   38.0612  -46.9875   68.2006 O   0  0  0  0  0
   37.0737  -46.0842   68.6780 C   0  0  0  0  0
   37.4093  -45.5875   69.5937 H   0  0  0  0  0
   36.1702  -46.6542   68.9063 H   0  0  0  0  0
   36.8309  -45.3415   67.9137 H   0  0  0  0  0
   40.4470  -47.2555   68.3045 C   0  0  0  0  0
   40.3583  -47.4211   69.7301 O   0  0  0  0  0
   40.4006  -46.5366   70.1317 H   0  0  0  0  0
   40.5000  -48.6588   67.6739 C   0  0  0  0  0
   39.3889  -49.4231   68.1149 O   0  0  0  0  0
   38.9687  -50.3825   67.1538 C   0  0  0  0  0
   38.6462  -49.8936   66.2305 H   0  0  0  0  0
   38.1217  -50.9340   67.5699 H   0  0  0  0  0
   39.7750  -51.0918   66.9417 H   0  0  0  0  0
   41.7949  -49.3556   68.0812 C   0  0  0  0  0
   42.7896  -48.9906   67.2131 O   0  0  0  0  0
   44.0410  -49.5031   67.4255 C   0  0  0  0  0
   44.4085  -50.1661   68.3871 O   0  0  0  0  0
   44.9413  -49.0917   66.2791 C   0  0  0  0  0
   45.8737  -50.1950   66.0357 N   0  0  0  0  0
   46.4626  -49.9709   65.2337 H   0  0  0  0  0
   45.3511  -51.0297   65.7711 H   0  0  0  0  0
   45.7564  -47.8383   66.5758 C   0  0  0  0  0
   46.9096  -47.8888   67.0079 O   0  0  0  0  0
   45.0468  -46.5004   66.3752 C   0  0  0  0  0
   45.9235  -45.4684   65.6258 C   0  0  0  0  0
   45.4277  -44.1534   65.8978 O   0  0  0  0  0
   46.0355  -43.5182   65.4841 H   0  0  0  0  0
   46.9351  -45.4940   66.0489 H   0  0  0  0  0
   44.6210  -45.9999   67.7612 C   0  0  0  0  0
   45.4904  -45.6966   68.3548 H   0  0  0  0  0
   44.0979  -46.7771   68.3267 H   0  0  0  0  0
   43.9444  -45.1442   67.6821 H   0  0  0  0  0
   44.1408  -46.6869   65.7966 H   0  0  0  0  0
   44.3560  -48.9448   65.3663 H   0  0  0  0  0
   41.8882  -50.1231   69.0305 O   0  0  0  0  0
   40.4860  -48.5979   66.5810 H   0  0  0  0  0
   41.3966  -46.7410   68.1359 H   0  0  0  0  0
   39.3411  -45.4290   68.4777 H   0  0  0  0  0
   38.3815  -45.2358   66.2261 H   0  0  0  0  0
   40.7423  -44.3847   66.6123 H   0  0  0  0  0
   40.1934  -45.4058   63.7428 H   0  0  0  0  0
   40.2053  -42.0572   62.4435 H   0  0  0  0  0
   42.1614  -42.7726   60.5046 C   0  0  0  0  0
   42.2569  -44.0829   59.7346 C   0  0  0  0  0
   42.3028  -43.8861   58.6594 H   0  0  0  0  0
   43.1581  -44.6356   60.0156 H   0  0  0  0  0
   41.3883  -44.7210   59.9215 H   0  0  0  0  0
   41.2644  -42.2329   60.1755 H   0  0  0  0  0
   43.0193  -42.1463   60.2299 H   0  0  0  0  0
   42.6255  -42.1195   62.4807 H   0  0  0  0  0
   42.4192  -45.1768   62.0877 H   0  0  0  0  0
   46.8179  -46.8988   63.6912 C   0  0  0  0  0
   46.2625  -47.8145   63.9082 H   0  0  0  0  0
   47.0119  -46.8971   62.6122 H   0  0  0  0  0
   47.7834  -46.9476   64.2040 H   0  0  0  0  0
   46.6357  -44.7986   63.7052 H   0  0  0  0  0
  1  2  1  0  0  0
  1 56  1  0  0  0
  1 83  1  0  0  0
  1 87  1  0  0  0
  2  3  2  0  0  0
  2  4  1  0  0  0
  4  5  1  0  0  0
  4 10  2  0  0  0
  5  6  1  0  0  0
  6  7  1  0  0  0
  6  8  1  0  0  0
  6  9  1  0  0  0
 10 11  1  0  0  0
 10 82  1  0  0  0
 11 12  1  0  0  0
 11 74  1  0  0  0
 11 81  1  0  0  0
 12 13  1  0  0  0
 12 15  1  0  0  0
 12 73  1  0  0  0
 13 14  1  0  0  0
 15 16  1  0  0  0
 15 23  2  0  0  0
 16 17  1  0  0  0
 16 21  1  0  0  0
 16 22  1  0  0  0
 17 18  1  0  0  0
 17 19  1  0  0  0
 17 20  1  0  0  0
 23 24  1  0  0  0
 23 72  1  0  0  0
 24 25  1  0  0  0
 24 27  1  0  0  0
 24 71  1  0  0  0
 25 26  1  0  0  0
 27 28  1  0  0  0
 27 30  1  0  0  0
 27 70  1  0  0  0
 28 29  1  0  0  0
 30 31  1  0  0  0
 30 36  1  0  0  0
 30 69  1  0  0  0
 31 32  1  0  0  0
 32 33  1  0  0  0
 32 34  1  0  0  0
 32 35  1  0  0  0
 36 37  1  0  0  0
 36 39  1  0  0  0
 36 68  1  0  0  0
 37 38  1  0  0  0
 39 40  1  0  0  0
 39 45  1  0  0  0
 39 67  1  0  0  0
 40 41  1  0  0  0
 41 42  1  0  0  0
 41 43  1  0  0  0
 41 44  1  0  0  0
 45 46  1  0  0  0
 45 66  2  0  0  0
 46 47  1  0  0  0
 47 48  2  0  0  0
 47 49  1  0  0  0
 49 50  1  0  0  0
 49 53  1  0  0  0
 49 65  1  0  0  0
 50 51  1  0  0  0
 50 52  1  0  0  0
 53 54  2  0  0  0
 53 55  1  0  0  0
 55 56  1  0  0  0
 55 60  1  0  0  0
 55 64  1  0  0  0
 56 57  1  0  0  0
 56 59  1  0  0  0
 57 58  1  0  0  0
 60 61  1  0  0  0
 60 62  1  0  0  0
 60 63  1  0  0  0
 74 75  1  0  0  0
 74 79  1  0  0  0
 74 80  1  0  0  0
 75 76  1  0  0  0
 75 77  1  0  0  0
 75 78  1  0  0  0
 83 84  1  0  0  0
 83 85  1  0  0  0
 83 86  1  0  0  0
M  END
> <# Confs.>
12

> <Pharmacophore Match>
(1YET) [A] GDM275

> <Matching Features>
H:495067227192821472|H:495067279551021655|H:495067334351321757||HBA:495067246627921590|HBA:495067385280122077|HBA:495067408768422079|HBA:495067414144822081

> <Relative Pharmacophore-Fit Score>
0.83

> <Score>
0.83300215

> <Source Database>
conformers.ldb

> <Active/Decoy>
unknown

> <Mol. Index>
144

$$$$
136
XX    ILIB11282304113D

 66 66  0  0  1  0              1 V2000
   39.6656  -45.7372   63.7356 C   0  0  0  0  0
   39.1869  -44.6438   63.0897 O   0  0  0  0  0
   39.3718  -44.6760   62.1257 H   0  0  0  0  0
   40.2666  -46.6433   63.1755 O   0  0  0  0  0
   39.3692  -45.6632   65.2128 C   0  0  0  0  0
   40.0016  -44.4961   65.6961 O   0  0  0  0  0
   39.3167  -43.9235   66.8015 C   0  0  0  0  0
   38.3013  -43.6364   66.5141 H   0  0  0  0  0
   39.2894  -44.6268   67.6390 H   0  0  0  0  0
   39.8578  -43.0263   67.1150 H   0  0  0  0  0
   39.8237  -46.9054   65.9587 C   0  0  0  0  0
   40.6536  -46.8333   66.8691 O   0  0  0  0  0
   39.1985  -48.2411   65.6062 C   0  0  0  0  0
   37.8086  -48.1175   65.8508 O   0  0  0  0  0
   37.0285  -48.9396   64.9937 C   0  0  0  0  0
   37.1919  -48.6627   63.9472 H   0  0  0  0  0
   37.2757  -49.9942   65.1499 H   0  0  0  0  0
   35.9732  -48.7864   65.2354 H   0  0  0  0  0
   39.8124  -49.3835   66.3971 C   0  0  0  0  0
   41.2840  -49.6698   66.2254 C   0  0  0  0  0
   41.4982  -51.0121   65.7113 N   0  0  0  0  0
   41.1358  -51.7092   66.3699 H   0  0  0  0  0
   40.9843  -51.1370   64.8471 H   0  0  0  0  0
   42.1025  -49.5302   67.5095 C   0  0  0  0  0
   43.2283  -48.5149   67.5570 C   0  0  0  0  0
   43.3582  -48.0613   68.9006 O   0  0  0  0  0
   42.5503  -46.9249   69.1733 C   0  0  0  0  0
   42.8373  -46.0894   68.5282 H   0  0  0  0  0
   41.4928  -47.1670   69.0321 H   0  0  0  0  0
   42.7066  -46.6337   70.2147 H   0  0  0  0  0
   44.5451  -49.1026   67.0426 C   0  0  0  0  0
   44.8973  -50.2199   67.8650 O   0  0  0  0  0
   45.1164  -49.8851   68.7513 H   0  0  0  0  0
   45.7410  -48.1463   67.0078 C   0  0  0  0  0
   45.5424  -46.9169   66.1251 C   0  0  0  0  0
   45.3039  -47.3700   64.7870 O   0  0  0  0  0
   44.3427  -46.6967   64.1124 C   0  0  0  0  0
   43.2746  -46.2896   64.5393 O   0  0  0  0  0
   44.8282  -46.4774   62.7406 C   0  0  0  0  0
   43.9820  -46.8678   61.7469 N   0  0  0  0  0
   43.0903  -47.2873   61.9760 H   0  0  0  0  0
   44.2502  -46.7455   60.7783 H   0  0  0  0  0
   46.0301  -45.9010   62.5658 C   0  0  0  0  0
   47.0535  -45.3287   63.5260 C   0  0  0  0  0
   46.7551  -44.8972   64.9849 C   0  0  0  0  0
   45.5441  -44.1511   65.0294 O   0  0  0  0  0
   45.4310  -43.8268   65.9377 H   0  0  0  0  0
   46.7983  -46.0227   66.0567 C   0  0  0  0  0
   47.0212  -45.4334   67.3845 N   0  0  0  0  0
   46.2417  -44.8273   67.6319 H   0  0  0  0  0
   47.8489  -44.8381   67.3638 H   0  0  0  0  0
   47.6688  -46.6515   65.8327 H   0  0  0  0  0
   47.5552  -44.1866   65.2321 H   0  0  0  0  0
   47.3904  -44.4089   63.0252 H   0  0  0  0  0
   47.9254  -45.9945   63.5240 H   0  0  0  0  0
   46.3466  -45.7872   61.5278 H   0  0  0  0  0
   44.6877  -46.3415   66.5063 H   0  0  0  0  0
   46.6455  -48.6885   66.7022 H   0  0  0  0  0
   45.9393  -47.8051   68.0327 H   0  0  0  0  0
   44.3841  -49.5051   66.0359 H   0  0  0  0  0
   42.9090  -47.6652   66.9282 H   0  0  0  0  0
   41.8874  -50.2587   68.4811 O   0  0  0  0  0
   41.6916  -48.9515   65.5059 H   0  0  0  0  0
   39.1133  -50.1225   67.0915 O   0  0  0  0  0
   39.3665  -48.4133   64.5349 H   0  0  0  0  0
   38.2813  -45.5636   65.3276 H   0  0  0  0  0
  1  2  1  0  0  0
  1  4  2  0  0  0
  1  5  1  0  0  0
  2  3  1  0  0  0
  5  6  1  0  0  0
  5 11  1  0  0  0
  5 66  1  0  0  0
  6  7  1  0  0  0
  7  8  1  0  0  0
  7  9  1  0  0  0
  7 10  1  0  0  0
 11 12  2  0  0  0
 11 13  1  0  0  0
 13 14  1  0  0  0
 13 19  1  0  0  0
 13 65  1  0  0  0
 14 15  1  0  0  0
 15 16  1  0  0  0
 15 17  1  0  0  0
 15 18  1  0  0  0
 19 20  1  0  0  0
 19 64  2  0  0  0
 20 21  1  0  0  0
 20 24  1  0  0  0
 20 63  1  0  0  0
 21 22  1  0  0  0
 21 23  1  0  0  0
 24 25  1  0  0  0
 24 62  2  0  0  0
 25 26  1  0  0  0
 25 31  1  0  0  0
 25 61  1  0  0  0
 26 27  1  0  0  0
 27 28  1  0  0  0
 27 29  1  0  0  0
 27 30  1  0  0  0
 31 32  1  0  0  0
 31 34  1  0  0  0
 31 60  1  0  0  0
 32 33  1  0  0  0
 34 35  1  0  0  0
 34 58  1  0  0  0
 34 59  1  0  0  0
 35 36  1  0  0  0
 35 48  1  0  0  0
 35 57  1  0  0  0
 36 37  1  0  0  0
 37 38  2  0  0  0
 37 39  1  0  0  0
 39 40  1  0  0  0
 39 43  2  0  0  0
 40 41  1  0  0  0
 40 42  1  0  0  0
 43 44  1  0  0  0
 43 56  1  0  0  0
 44 45  1  0  0  0
 44 54  1  0  0  0
 44 55  1  0  0  0
 45 46  1  0  0  0
 45 48  1  0  0  0
 45 53  1  0  0  0
 46 47  1  0  0  0
 48 49  1  0  0  0
 48 52  1  0  0  0
 49 50  1  0  0  0
 49 51  1  0  0  0
M  END
> <# Confs.>
25

> <Pharmacophore Match>
(1YET) [A] GDM275

> <Matching Features>
||||HBA:495067246627921590|HBA:495067385280122077|HBA:495067408768422079|HBA:495067414144822081

> <Relative Pharmacophore-Fit Score>
0.50

> <Score>
0.49702224

> <Source Database>
conformers.ldb

> <Active/Decoy>
unknown

> <Mol. Index>
125

$$$$
137
XX    ILIB11282304113D

 66 66  0  0  1  0              1 V2000
   39.6633  -50.2903   68.2271 C   0  0  0  0  0
   40.0749  -51.5787   68.3690 O   0  0  0  0  0
   41.0237  -51.7384   68.1793 H   0  0  0  0  0
   38.5168  -49.9330   68.4619 O   0  0  0  0  0
   40.7821  -49.3806   67.7872 C   0  0  0  0  0
   41.6688  -50.1604   67.0106 O   0  0  0  0  0
   43.0127  -49.7036   67.0994 C   0  0  0  0  0
   43.6337  -50.3346   66.4599 H   0  0  0  0  0
   43.3760  -49.7832   68.1277 H   0  0  0  0  0
   43.0919  -48.6689   66.7513 H   0  0  0  0  0
   40.2840  -48.1666   67.0223 C   0  0  0  0  0
   40.1354  -48.1962   65.7989 O   0  0  0  0  0
   39.9096  -46.9164   67.8136 C   0  0  0  0  0
   41.0974  -46.5009   68.4659 O   0  0  0  0  0
   40.8223  -45.8288   69.6882 C   0  0  0  0  0
   41.7720  -45.5163   70.1305 H   0  0  0  0  0
   40.3167  -46.5014   70.3874 H   0  0  0  0  0
   40.2096  -44.9393   69.5119 H   0  0  0  0  0
   39.3559  -45.8251   66.9009 C   0  0  0  0  0
   40.3072  -44.8310   66.2872 C   0  0  0  0  0
   40.4546  -43.7127   67.1981 N   0  0  0  0  0
   39.5680  -43.2258   67.3193 H   0  0  0  0  0
   41.1101  -43.0321   66.8158 H   0  0  0  0  0
   39.8943  -44.3456   64.9044 C   0  0  0  0  0
   40.3690  -45.1170   63.6875 C   0  0  0  0  0
   39.8357  -44.4359   62.5647 O   0  0  0  0  0
   38.5545  -44.9269   62.1910 C   0  0  0  0  0
   38.2180  -44.3753   61.3100 H   0  0  0  0  0
   37.8348  -44.7664   62.9989 H   0  0  0  0  0
   38.6061  -45.9912   61.9382 H   0  0  0  0  0
   41.8962  -45.1690   63.6244 C   0  0  0  0  0
   42.2731  -45.9130   62.4494 O   0  0  0  0  0
   42.6652  -47.2061   62.5654 C   0  0  0  0  0
   42.6098  -47.9194   63.5539 O   0  0  0  0  0
   43.1755  -47.6486   61.2429 C   0  0  0  0  0
   42.5325  -48.7128   60.6872 N   0  0  0  0  0
   41.7527  -49.1422   61.1696 H   0  0  0  0  0
   42.8358  -49.0769   59.7917 H   0  0  0  0  0
   44.2220  -46.9915   60.7070 C   0  0  0  0  0
   45.0201  -45.8948   61.3702 C   0  0  0  0  0
   44.4764  -44.4881   61.0665 C   0  0  0  0  0
   45.0736  -44.0125   59.8534 O   0  0  0  0  0
   44.8586  -44.6483   59.1518 H   0  0  0  0  0
   44.7531  -43.4518   62.1802 C   0  0  0  0  0
   46.2059  -43.3370   62.4136 N   0  0  0  0  0
   46.5623  -44.2058   62.8086 H   0  0  0  0  0
   46.6835  -43.2136   61.5218 H   0  0  0  0  0
   44.0467  -43.7240   63.5362 C   0  0  0  0  0
   44.4057  -42.6417   64.4139 O   0  0  0  0  0
   44.0701  -42.8618   65.2996 H   0  0  0  0  0
   42.5002  -43.7543   63.4803 C   0  0  0  0  0
   42.1608  -43.3084   62.5368 H   0  0  0  0  0
   42.0997  -43.1194   64.2798 H   0  0  0  0  0
   44.4341  -44.6366   64.0025 H   0  0  0  0  0
   44.4390  -42.4638   61.8184 H   0  0  0  0  0
   43.4004  -44.5046   60.8673 H   0  0  0  0  0
   46.0570  -45.9839   61.0223 H   0  0  0  0  0
   45.0482  -46.0896   62.4471 H   0  0  0  0  0
   44.5810  -47.3033   59.7273 H   0  0  0  0  0
   42.3029  -45.6355   64.5307 H   0  0  0  0  0
   39.9286  -46.1216   63.7357 H   0  0  0  0  0
   39.1917  -43.3416   64.7656 O   0  0  0  0  0
   41.2823  -45.3257   66.1737 H   0  0  0  0  0
   38.1384  -45.7371   66.7069 O   0  0  0  0  0
   39.1621  -47.1946   68.5479 H   0  0  0  0  0
   41.2982  -49.0318   68.6909 H   0  0  0  0  0
  1  2  1  0  0  0
  1  4  2  0  0  0
  1  5  1  0  0  0
  2  3  1  0  0  0
  5  6  1  0  0  0
  5 11  1  0  0  0
  5 66  1  0  0  0
  6  7  1  0  0  0
  7  8  1  0  0  0
  7  9  1  0  0  0
  7 10  1  0  0  0
 11 12  2  0  0  0
 11 13  1  0  0  0
 13 14  1  0  0  0
 13 19  1  0  0  0
 13 65  1  0  0  0
 14 15  1  0  0  0
 15 16  1  0  0  0
 15 17  1  0  0  0
 15 18  1  0  0  0
 19 20  1  0  0  0
 19 64  2  0  0  0
 20 21  1  0  0  0
 20 24  1  0  0  0
 20 63  1  0  0  0
 21 22  1  0  0  0
 21 23  1  0  0  0
 24 25  1  0  0  0
 24 62  2  0  0  0
 25 26  1  0  0  0
 25 31  1  0  0  0
 25 61  1  0  0  0
 26 27  1  0  0  0
 27 28  1  0  0  0
 27 29  1  0  0  0
 27 30  1  0  0  0
 31 32  1  0  0  0
 31 51  1  0  0  0
 31 60  1  0  0  0
 32 33  1  0  0  0
 33 34  2  0  0  0
 33 35  1  0  0  0
 35 36  1  0  0  0
 35 39  2  0  0  0
 36 37  1  0  0  0
 36 38  1  0  0  0
 39 40  1  0  0  0
 39 59  1  0  0  0
 40 41  1  0  0  0
 40 57  1  0  0  0
 40 58  1  0  0  0
 41 42  1  0  0  0
 41 44  1  0  0  0
 41 56  1  0  0  0
 42 43  1  0  0  0
 44 45  1  0  0  0
 44 48  1  0  0  0
 44 55  1  0  0  0
 45 46  1  0  0  0
 45 47  1  0  0  0
 48 49  1  0  0  0
 48 51  1  0  0  0
 48 54  1  0  0  0
 49 50  1  0  0  0
 51 52  1  0  0  0
 51 53  1  0  0  0
M  END
> <# Confs.>
25

> <Pharmacophore Match>
(1YET) [A] GDM275

> <Matching Features>
||||HBA:495067246627921590|HBA:495067385280122077|HBA:495067408768422079|HBA:495067414144822081

> <Relative Pharmacophore-Fit Score>
0.50

> <Score>
0.5003913

> <Source Database>
conformers.ldb

> <Active/Decoy>
unknown

> <Mol. Index>
123

$$$$
150
XX    ILIB11282304113D

 87 87  0  0  1  0              1 V2000
   45.7766  -46.1544   64.6775 C   0  0  0  0  0
   45.3568  -45.7018   63.2762 C   0  0  0  0  0
   45.7097  -46.3162   62.2692 O   0  0  0  0  0
   44.4918  -44.4837   63.1571 C   0  0  0  0  0
   44.5566  -43.5074   64.1172 O   0  0  0  0  0
   45.5167  -42.4870   63.8669 C   0  0  0  0  0
   46.5294  -42.9019   63.8280 H   0  0  0  0  0
   45.4739  -41.7746   64.6947 H   0  0  0  0  0
   45.2826  -41.9460   62.9436 H   0  0  0  0  0
   43.5917  -44.4507   62.1592 C   0  0  0  0  0
   42.6171  -43.3173   61.8936 C   0  0  0  0  0
   41.1656  -43.7758   62.2057 C   0  0  0  0  0
   40.2301  -42.7852   61.7786 O   0  0  0  0  0
   39.3370  -43.1502   61.9040 H   0  0  0  0  0
   40.9355  -44.0692   63.6860 C   0  0  0  0  0
   40.8144  -42.8909   64.6052 C   0  0  0  0  0
   39.3724  -42.4368   64.7808 C   0  0  0  0  0
   38.9343  -42.1166   63.8291 H   0  0  0  0  0
   39.3264  -41.5892   65.4714 H   0  0  0  0  0
   38.7521  -43.2405   65.1902 H   0  0  0  0  0
   41.2292  -43.1332   65.5918 H   0  0  0  0  0
   41.4153  -42.0621   64.2123 H   0  0  0  0  0
   40.8823  -45.3481   64.1111 C   0  0  0  0  0
   40.6388  -45.8223   65.5203 C   0  0  0  0  0
   41.9217  -46.2910   66.0166 O   0  0  0  0  0
   42.1841  -46.1705   67.3521 C   0  0  0  0  0
   41.4368  -45.6715   68.1839 O   0  0  0  0  0
   43.5792  -46.6829   67.6433 C   0  0  0  0  0
   43.6733  -46.9788   69.0691 N   0  0  0  0  0
   43.0642  -47.7595   69.3084 H   0  0  0  0  0
   44.6225  -47.2709   69.3012 H   0  0  0  0  0
   43.9583  -47.9558   66.9028 C   0  0  0  0  0
   43.1427  -48.8657   66.7392 O   0  0  0  0  0
   45.3902  -48.0623   66.3731 C   0  0  0  0  0
   45.4155  -47.6492   64.8789 C   0  0  0  0  0
   46.3353  -48.4738   64.1622 O   0  0  0  0  0
   46.2691  -48.2427   63.2207 H   0  0  0  0  0
   44.4279  -47.8386   64.4390 H   0  0  0  0  0
   45.8967  -49.4847   66.6331 C   0  0  0  0  0
   45.3540  -50.2216   66.0317 H   0  0  0  0  0
   45.7625  -49.7568   67.6860 H   0  0  0  0  0
   46.9638  -49.5692   66.4032 H   0  0  0  0  0
   46.0184  -47.3939   66.9723 H   0  0  0  0  0
   44.2729  -45.8760   67.3939 H   0  0  0  0  0
   39.6293  -46.9735   65.5573 C   0  0  0  0  0
   40.1257  -48.0561   64.7610 O   0  0  0  0  0
   40.8613  -48.4609   65.2506 H   0  0  0  0  0
   39.1643  -47.5272   66.9079 C   0  0  0  0  0
   38.5838  -46.4917   67.6855 O   0  0  0  0  0
   38.7688  -46.6776   69.0826 C   0  0  0  0  0
   38.3562  -47.6394   69.4022 H   0  0  0  0  0
   38.2379  -45.8791   69.6086 H   0  0  0  0  0
   39.8289  -46.6167   69.3445 H   0  0  0  0  0
   38.1778  -48.6861   66.8306 C   0  0  0  0  0
   37.0024  -48.2306   66.1508 O   0  0  0  0  0
   37.2276  -48.1180   65.2117 H   0  0  0  0  0
   38.6377  -49.9951   66.1812 C   0  0  0  0  0
   37.6104  -50.9739   66.1749 O   0  0  0  0  0
   37.7106  -51.8629   65.0712 C   0  0  0  0  0
   37.6759  -51.3118   64.1267 H   0  0  0  0  0
   36.8595  -52.5481   65.1051 H   0  0  0  0  0
   38.6303  -52.4525   65.1308 H   0  0  0  0  0
   39.7851  -50.6095   66.9548 C   0  0  0  0  0
   40.9820  -50.1659   66.4937 O   0  0  0  0  0
   41.7324  -50.5398   67.0029 H   0  0  0  0  0
   39.6700  -51.3710   67.9052 O   0  0  0  0  0
   38.9813  -49.8379   65.1504 H   0  0  0  0  0
   37.8487  -48.9124   67.8532 H   0  0  0  0  0
   40.0672  -47.8865   67.4524 H   0  0  0  0  0
   38.7250  -46.6235   65.0166 H   0  0  0  0  0
   40.2788  -45.0137   66.1544 H   0  0  0  0  0
   41.0289  -46.1341   63.3719 H   0  0  0  0  0
   40.9470  -44.6706   61.6070 H   0  0  0  0  0
   42.7981  -42.8736   60.4450 C   0  0  0  0  0
   44.2003  -42.3739   60.1116 C   0  0  0  0  0
   44.4658  -41.4966   60.7096 H   0  0  0  0  0
   44.9527  -43.1492   60.2830 H   0  0  0  0  0
   44.2537  -42.0852   59.0583 H   0  0  0  0  0
   42.5632  -43.7109   59.7763 H   0  0  0  0  0
   42.0831  -42.0735   60.2165 H   0  0  0  0  0
   42.8654  -42.4532   62.5225 H   0  0  0  0  0
   43.5328  -45.2871   61.4641 H   0  0  0  0  0
   47.2694  -45.8701   64.8580 C   0  0  0  0  0
   47.4719  -44.7978   64.7813 H   0  0  0  0  0
   47.8730  -46.3631   64.0875 H   0  0  0  0  0
   47.6257  -46.2066   65.8362 H   0  0  0  0  0
   45.2148  -45.5633   65.4044 H   0  0  0  0  0
  1  2  1  0  0  0
  1 35  1  0  0  0
  1 83  1  0  0  0
  1 87  1  0  0  0
  2  3  2  0  0  0
  2  4  1  0  0  0
  4  5  1  0  0  0
  4 10  2  0  0  0
  5  6  1  0  0  0
  6  7  1  0  0  0
  6  8  1  0  0  0
  6  9  1  0  0  0
 10 11  1  0  0  0
 10 82  1  0  0  0
 11 12  1  0  0  0
 11 74  1  0  0  0
 11 81  1  0  0  0
 12 13  1  0  0  0
 12 15  1  0  0  0
 12 73  1  0  0  0
 13 14  1  0  0  0
 15 16  1  0  0  0
 15 23  2  0  0  0
 16 17  1  0  0  0
 16 21  1  0  0  0
 16 22  1  0  0  0
 17 18  1  0  0  0
 17 19  1  0  0  0
 17 20  1  0  0  0
 23 24  1  0  0  0
 23 72  1  0  0  0
 24 25  1  0  0  0
 24 45  1  0  0  0
 24 71  1  0  0  0
 25 26  1  0  0  0
 26 27  2  0  0  0
 26 28  1  0  0  0
 28 29  1  0  0  0
 28 32  1  0  0  0
 28 44  1  0  0  0
 29 30  1  0  0  0
 29 31  1  0  0  0
 32 33  2  0  0  0
 32 34  1  0  0  0
 34 35  1  0  0  0
 34 39  1  0  0  0
 34 43  1  0  0  0
 35 36  1  0  0  0
 35 38  1  0  0  0
 36 37  1  0  0  0
 39 40  1  0  0  0
 39 41  1  0  0  0
 39 42  1  0  0  0
 45 46  1  0  0  0
 45 48  1  0  0  0
 45 70  1  0  0  0
 46 47  1  0  0  0
 48 49  1  0  0  0
 48 54  1  0  0  0
 48 69  1  0  0  0
 49 50  1  0  0  0
 50 51  1  0  0  0
 50 52  1  0  0  0
 50 53  1  0  0  0
 54 55  1  0  0  0
 54 57  1  0  0  0
 54 68  1  0  0  0
 55 56  1  0  0  0
 57 58  1  0  0  0
 57 63  1  0  0  0
 57 67  1  0  0  0
 58 59  1  0  0  0
 59 60  1  0  0  0
 59 61  1  0  0  0
 59 62  1  0  0  0
 63 64  1  0  0  0
 63 66  2  0  0  0
 64 65  1  0  0  0
 74 75  1  0  0  0
 74 79  1  0  0  0
 74 80  1  0  0  0
 75 76  1  0  0  0
 75 77  1  0  0  0
 75 78  1  0  0  0
 83 84  1  0  0  0
 83 85  1  0  0  0
 83 86  1  0  0  0
M  END
> <# Confs.>
25

> <Pharmacophore Match>
(1YET) [A] GDM275

> <Matching Features>
||H:495067334351321757||HBA:495067246627921590|HBA:495067385280122077|HBA:495067408768422079|HBA:495067414144822081

> <Relative Pharmacophore-Fit Score>
0.61

> <Score>
0.61194634

> <Source Database>
conformers.ldb

> <Active/Decoy>
unknown

> <Mol. Index>
147

$$$$
143
XX    ILIB11282304113D

 81 81  0  0  1  0              1 V2000
   40.5900  -51.4363   64.1987 C   0  0  0  0  0
   40.0597  -51.7808   65.6061 C   0  0  0  0  0
   39.7267  -50.5868   66.3236 O   0  0  0  0  0
   38.9950  -50.1387   65.8678 H   0  0  0  0  0
   38.8566  -52.7505   65.6584 C   0  0  0  0  0
   37.7095  -52.2059   64.9327 N   0  0  0  0  0
   37.9626  -52.0682   63.9547 H   0  0  0  0  0
   37.4822  -51.2794   65.2922 H   0  0  0  0  0
   38.4131  -52.9846   67.0894 C   0  0  0  0  0
   39.0438  -54.1207   67.8669 C   0  0  0  0  0
   40.4451  -53.9210   67.9556 O   0  0  0  0  0
   40.8207  -53.1733   69.1044 C   0  0  0  0  0
   40.5644  -53.7224   70.0151 H   0  0  0  0  0
   41.9035  -53.0273   69.0803 H   0  0  0  0  0
   40.3395  -52.1908   69.1104 H   0  0  0  0  0
   38.9080  -55.4933   67.2393 C   0  0  0  0  0
   37.6033  -55.8487   67.0872 O   0  0  0  0  0
   36.9527  -55.1854   67.4008 H   0  0  0  0  0
   39.8332  -56.2242   66.9107 O   0  0  0  0  0
   38.5561  -54.1565   68.8495 H   0  0  0  0  0
   37.5645  -52.2662   67.6252 O   0  0  0  0  0
   39.1153  -53.7158   65.2093 H   0  0  0  0  0
   40.8700  -52.2440   66.1562 H   0  0  0  0  0
   41.8468  -50.5878   64.2438 C   0  0  0  0  0
   41.6642  -49.2364   64.9452 C   0  0  0  0  0
   42.9387  -48.5454   64.9052 O   0  0  0  0  0
   43.5866  -48.3032   66.0791 C   0  0  0  0  0
   43.1791  -48.5973   67.1955 O   0  0  0  0  0
   44.9274  -47.6368   65.8087 C   0  0  0  0  0
   45.5832  -47.5272   67.0717 O   0  0  0  0  0
   45.0882  -46.8881   67.6124 H   0  0  0  0  0
   44.7920  -46.2335   65.2046 C   0  0  0  0  0
   44.8318  -46.2197   63.6637 C   0  0  0  0  0
   44.1452  -44.9452   63.1657 C   0  0  0  0  0
   44.6676  -43.8357   63.2232 O   0  0  0  0  0
   42.7649  -45.1007   62.6253 C   0  0  0  0  0
   42.6173  -45.5705   61.2089 C   0  0  0  0  0
   42.5646  -44.4138   60.2201 C   0  0  0  0  0
   43.4859  -43.8248   60.2536 H   0  0  0  0  0
   42.4421  -44.7960   59.2012 H   0  0  0  0  0
   41.7246  -43.7457   60.4307 H   0  0  0  0  0
   41.7039  -46.1702   61.1200 H   0  0  0  0  0
   43.4491  -46.2308   60.9349 H   0  0  0  0  0
   41.7950  -44.8068   63.5063 C   0  0  0  0  0
   40.3870  -45.0524   63.3020 C   0  0  0  0  0
   39.7859  -44.1962   62.4052 O   0  0  0  0  0
   38.8507  -44.4512   62.3227 H   0  0  0  0  0
   39.7262  -46.0565   63.9079 C   0  0  0  0  0
   40.3325  -47.0305   64.9052 C   0  0  0  0  0
   40.6243  -48.3758   64.2052 C   0  0  0  0  0
   39.6911  -48.9409   64.0867 H   0  0  0  0  0
   41.0060  -48.1786   63.1953 H   0  0  0  0  0
   39.4116  -47.2134   66.1128 C   0  0  0  0  0
   39.1554  -45.9095   66.8564 C   0  0  0  0  0
   40.0942  -45.4652   67.2015 H   0  0  0  0  0
   38.6409  -45.1803   66.2224 H   0  0  0  0  0
   38.5249  -46.0936   67.7312 H   0  0  0  0  0
   38.4509  -47.6414   65.8003 H   0  0  0  0  0
   39.8610  -47.9291   66.8132 H   0  0  0  0  0
   41.2749  -46.6210   65.2849 H   0  0  0  0  0
   38.6740  -46.2038   63.6704 H   0  0  0  0  0
   42.0528  -44.4608   64.5056 H   0  0  0  0  0
   46.2651  -46.2926   63.1394 C   0  0  0  0  0
   46.3728  -46.2822   61.6160 C   0  0  0  0  0
   45.5077  -47.6730   60.9232 Cl  0  0  0  0  0
   47.4172  -46.3450   61.2926 H   0  0  0  0  0
   45.9327  -45.3742   61.1950 H   0  0  0  0  0
   46.7097  -47.2277   63.5009 H   0  0  0  0  0
   46.8620  -45.4766   63.5639 H   0  0  0  0  0
   44.2812  -47.0829   63.2796 H   0  0  0  0  0
   45.5877  -45.5819   65.5888 H   0  0  0  0  0
   43.8572  -45.7850   65.5633 H   0  0  0  0  0
   45.5372  -48.3066   65.1961 H   0  0  0  0  0
   41.3360  -49.4121   65.9752 H   0  0  0  0  0
   42.1439  -50.3743   63.2092 H   0  0  0  0  0
   42.6599  -51.1437   64.7108 H   0  0  0  0  0
   40.8319  -52.6921   63.3591 C   0  0  0  0  0
   41.6137  -53.3210   63.7968 H   0  0  0  0  0
   41.1514  -52.4178   62.3479 H   0  0  0  0  0
   39.9235  -53.2949   63.2617 H   0  0  0  0  0
   39.7933  -50.8672   63.6828 H   0  0  0  0  0
  1  2  1  0  0  0
  1 24  1  0  0  0
  1 77  1  0  0  0
  1 81  1  0  0  0
  2  3  1  0  0  0
  2  5  1  0  0  0
  2 23  1  0  0  0
  3  4  1  0  0  0
  5  6  1  0  0  0
  5  9  1  0  0  0
  5 22  1  0  0  0
  6  7  1  0  0  0
  6  8  1  0  0  0
  9 10  1  0  0  0
  9 21  2  0  0  0
 10 11  1  0  0  0
 10 16  1  0  0  0
 10 20  1  0  0  0
 11 12  1  0  0  0
 12 13  1  0  0  0
 12 14  1  0  0  0
 12 15  1  0  0  0
 16 17  1  0  0  0
 16 19  2  0  0  0
 17 18  1  0  0  0
 24 25  1  0  0  0
 24 75  1  0  0  0
 24 76  1  0  0  0
 25 26  1  0  0  0
 25 50  1  0  0  0
 25 74  1  0  0  0
 26 27  1  0  0  0
 27 28  2  0  0  0
 27 29  1  0  0  0
 29 30  1  0  0  0
 29 32  1  0  0  0
 29 73  1  0  0  0
 30 31  1  0  0  0
 32 33  1  0  0  0
 32 71  1  0  0  0
 32 72  1  0  0  0
 33 34  1  0  0  0
 33 63  1  0  0  0
 33 70  1  0  0  0
 34 35  2  0  0  0
 34 36  1  0  0  0
 36 37  1  0  0  0
 36 44  2  0  0  0
 37 38  1  0  0  0
 37 42  1  0  0  0
 37 43  1  0  0  0
 38 39  1  0  0  0
 38 40  1  0  0  0
 38 41  1  0  0  0
 44 45  1  0  0  0
 44 62  1  0  0  0
 45 46  1  0  0  0
 45 48  2  0  0  0
 46 47  1  0  0  0
 48 49  1  0  0  0
 48 61  1  0  0  0
 49 50  1  0  0  0
 49 53  1  0  0  0
 49 60  1  0  0  0
 50 51  1  0  0  0
 50 52  1  0  0  0
 53 54  1  0  0  0
 53 58  1  0  0  0
 53 59  1  0  0  0
 54 55  1  0  0  0
 54 56  1  0  0  0
 54 57  1  0  0  0
 63 64  1  0  0  0
 63 68  1  0  0  0
 63 69  1  0  0  0
 64 65  1  0  0  0
 64 66  1  0  0  0
 64 67  1  0  0  0
 77 78  1  0  0  0
 77 79  1  0  0  0
 77 80  1  0  0  0
M  END
> <# Confs.>
25

> <Pharmacophore Match>
(1YET) [A] GDM275

> <Matching Features>
||||HBA:495067246627921590|HBA:495067385280122077|HBA:495067408768422079|HBA:495067414144822081

> <Relative Pharmacophore-Fit Score>
0.49

> <Score>
0.49434975

> <Source Database>
conformers.ldb

> <Active/Decoy>
unknown

> <Mol. Index>
141

$$$$
246
XX    ILIB11282304113D

 51 51  0  0  1  0              1 V2000
   40.2741  -43.0173   65.1707 C   0  0  0  0  0
   39.8280  -44.4648   65.2126 C   0  0  0  0  0
   38.7909  -44.8350   64.6616 O   0  0  0  0  0
   40.7004  -45.4898   65.9341 C   0  0  0  0  0
   40.0294  -46.7534   65.8361 O   0  0  0  0  0
   40.7689  -47.8399   65.4666 C   0  0  0  0  0
   40.0413  -49.0968   65.9061 C   0  0  0  0  0
   40.5270  -49.6406   67.2556 C   0  0  0  0  0
   41.4243  -48.7631   68.1242 C   0  0  0  0  0
   41.7227  -49.4264   69.3375 O   0  0  0  0  0
   40.8862  -49.5964   69.8011 H   0  0  0  0  0
   40.8162  -47.4275   68.5112 C   0  0  0  0  0
   41.6310  -46.1744   68.2288 C   0  0  0  0  0
   40.8551  -45.1296   67.4191 C   0  0  0  0  0
   39.8638  -44.9878   67.8666 H   0  0  0  0  0
   41.3768  -44.1687   67.5030 H   0  0  0  0  0
   41.9095  -45.7573   69.2035 H   0  0  0  0  0
   42.5626  -46.4311   67.7158 H   0  0  0  0  0
   39.7090  -47.3637   69.0479 O   0  0  0  0  0
   42.3688  -48.6221   67.5937 H   0  0  0  0  0
   40.1872  -50.7638   67.6387 O   0  0  0  0  0
   40.1524  -50.1696   64.8260 C   0  0  0  0  0
   39.5600  -49.7722   63.4768 C   0  0  0  0  0
   37.8253  -49.3992   63.6116 Cl  0  0  0  0  0
   39.6649  -50.5922   62.7590 H   0  0  0  0  0
   40.0617  -48.8904   63.0687 H   0  0  0  0  0
   39.6959  -51.1051   65.1782 H   0  0  0  0  0
   41.2147  -50.4050   64.6803 H   0  0  0  0  0
   38.9799  -48.8498   66.0420 H   0  0  0  0  0
   41.8804  -47.8229   64.9560 O   0  0  0  0  0
   41.6732  -45.5058   65.4301 H   0  0  0  0  0
   40.5294  -42.5435   63.7246 C   0  0  0  0  0
   39.3030  -42.6597   62.9956 O   0  0  0  0  0
   39.0976  -43.6055   62.9005 H   0  0  0  0  0
   41.6167  -43.2840   62.9414 C   0  0  0  0  0
   41.3141  -44.6624   62.8247 O   0  0  0  0  0
   41.8334  -45.2368   61.6346 C   0  0  0  0  0
   41.4073  -44.7445   60.7544 H   0  0  0  0  0
   42.9248  -45.1603   61.6194 H   0  0  0  0  0
   41.5562  -46.2940   61.6118 H   0  0  0  0  0
   42.9757  -43.1547   63.6039 C   0  0  0  0  0
   43.6394  -42.0640   63.1418 O   0  0  0  0  0
   44.5204  -41.9650   63.5616 H   0  0  0  0  0
   43.4286  -43.9110   64.4510 O   0  0  0  0  0
   41.7228  -42.8672   61.9307 H   0  0  0  0  0
   40.7713  -41.4741   63.7427 H   0  0  0  0  0
   39.2888  -42.1454   65.9125 C   0  0  0  0  0
   39.6441  -41.1128   65.9881 H   0  0  0  0  0
   38.3137  -42.1352   65.4130 H   0  0  0  0  0
   39.1309  -42.5181   66.9305 H   0  0  0  0  0
   41.2506  -42.9875   65.6933 H   0  0  0  0  0
  1  2  1  0  0  0
  1 32  1  0  0  0
  1 47  1  0  0  0
  1 51  1  0  0  0
  2  3  2  0  0  0
  2  4  1  0  0  0
  4  5  1  0  0  0
  4 14  1  0  0  0
  4 31  1  0  0  0
  5  6  1  0  0  0
  6  7  1  0  0  0
  6 30  2  0  0  0
  7  8  1  0  0  0
  7 22  1  0  0  0
  7 29  1  0  0  0
  8  9  1  0  0  0
  8 21  2  0  0  0
  9 10  1  0  0  0
  9 12  1  0  0  0
  9 20  1  0  0  0
 10 11  1  0  0  0
 12 13  1  0  0  0
 12 19  2  0  0  0
 13 14  1  0  0  0
 13 17  1  0  0  0
 13 18  1  0  0  0
 14 15  1  0  0  0
 14 16  1  0  0  0
 22 23  1  0  0  0
 22 27  1  0  0  0
 22 28  1  0  0  0
 23 24  1  0  0  0
 23 25  1  0  0  0
 23 26  1  0  0  0
 32 33  1  0  0  0
 32 35  1  0  0  0
 32 46  1  0  0  0
 33 34  1  0  0  0
 35 36  1  0  0  0
 35 41  1  0  0  0
 35 45  1  0  0  0
 36 37  1  0  0  0
 37 38  1  0  0  0
 37 39  1  0  0  0
 37 40  1  0  0  0
 41 42  1  0  0  0
 41 44  2  0  0  0
 42 43  1  0  0  0
 47 48  1  0  0  0
 47 49  1  0  0  0
 47 50  1  0  0  0
M  END
> <# Confs.>
25

> <Pharmacophore Match>
(1YET) [A] GDM275

> <Matching Features>
||||HBA:495067246627921590|HBA:495067385280122077|HBA:495067408768422079|HBA:495067414144822081

> <Relative Pharmacophore-Fit Score>
0.49

> <Score>
0.49306276

> <Source Database>
conformers.ldb

> <Active/Decoy>
unknown

> <Mol. Index>
234

$$$$
261
XX    ILIB11282304113D

 64 64  0  0  1  0              1 V2000
   40.4338  -49.5097   68.2051 C   0  0  0  0  0
   39.4898  -50.4128   68.5681 O   0  0  0  0  0
   39.6508  -51.2927   68.1661 H   0  0  0  0  0
   41.3735  -49.7687   67.4661 O   0  0  0  0  0
   40.2121  -48.1821   68.8385 C   0  0  0  0  0
   40.9034  -48.1613   70.0842 O   0  0  0  0  0
   40.2761  -47.3317   71.0534 C   0  0  0  0  0
   40.2460  -46.2946   70.7051 H   0  0  0  0  0
   40.8648  -47.3729   71.9736 H   0  0  0  0  0
   39.2642  -47.6860   71.2707 H   0  0  0  0  0
   40.7060  -46.9775   68.0746 C   0  0  0  0  0
   39.9345  -46.0926   67.7076 O   0  0  0  0  0
   42.1987  -46.9126   67.7614 C   0  0  0  0  0
   42.7085  -45.6843   68.3755 N   0  0  0  0  0
   42.3189  -44.8751   67.8927 H   0  0  0  0  0
   43.7172  -45.6295   68.2365 H   0  0  0  0  0
   42.4977  -46.9419   66.2577 C   0  0  0  0  0
   41.8233  -45.7720   65.7055 O   0  0  0  0  0
   40.7992  -45.9773   64.8242 C   0  0  0  0  0
   40.4713  -47.0515   64.3388 O   0  0  0  0  0
   40.0680  -44.6824   64.5743 C   0  0  0  0  0
   39.5058  -44.5523   63.1719 C   0  0  0  0  0
   38.7616  -45.4190   62.7086 O   0  0  0  0  0
   39.8767  -43.3091   62.3711 C   0  0  0  0  0
   38.8619  -43.1414   61.3822 O   0  0  0  0  0
   38.9331  -43.8766   60.7517 H   0  0  0  0  0
   41.2305  -43.4444   61.6597 C   0  0  0  0  0
   42.4640  -43.2886   62.5727 C   0  0  0  0  0
   42.4315  -41.9666   63.2001 N   0  0  0  0  0
   42.6185  -41.2502   62.5017 H   0  0  0  0  0
   43.1692  -41.8886   63.8970 H   0  0  0  0  0
   43.7912  -43.5235   61.8095 C   0  0  0  0  0
   43.7335  -44.8102   61.1963 O   0  0  0  0  0
   44.5009  -44.8884   60.6040 H   0  0  0  0  0
   45.0428  -43.4168   62.7086 C   0  0  0  0  0
   46.2857  -43.6483   61.9753 N   0  0  0  0  0
   46.3061  -44.5826   61.5712 H   0  0  0  0  0
   47.0820  -43.5831   62.6078 H   0  0  0  0  0
   44.9869  -44.3328   63.9349 C   0  0  0  0  0
   45.2565  -45.8205   63.7783 C   0  0  0  0  0
   46.5423  -46.0904   64.4099 N   0  0  0  0  0
   47.2645  -45.5090   63.9801 H   0  0  0  0  0
   46.8207  -47.0516   64.2163 H   0  0  0  0  0
   44.1902  -46.7405   64.3648 C   0  0  0  0  0
   43.4834  -47.4072   63.6017 O   0  0  0  0  0
   44.0078  -46.8447   65.8894 C   0  0  0  0  0
   44.8120  -48.0511   66.3756 C   0  0  0  0  0
   45.0171  -47.9822   67.4477 H   0  0  0  0  0
   45.7833  -48.1364   65.8806 H   0  0  0  0  0
   44.2790  -48.9878   66.1799 H   0  0  0  0  0
   44.4143  -45.9323   66.3378 H   0  0  0  0  0
   45.3369  -46.0777   62.7189 H   0  0  0  0  0
   44.7018  -43.8481   65.0346 O   0  0  0  0  0
   45.1145  -42.3909   63.0889 H   0  0  0  0  0
   43.8681  -42.7898   60.9984 H   0  0  0  0  0
   42.3922  -44.0513   63.3505 H   0  0  0  0  0
   41.2619  -44.4212   61.1604 H   0  0  0  0  0
   41.2832  -42.7029   60.8486 H   0  0  0  0  0
   39.8232  -42.4320   63.0214 H   0  0  0  0  0
   40.7270  -43.8373   64.7838 H   0  0  0  0  0
   39.2337  -44.6163   65.2804 H   0  0  0  0  0
   42.0775  -47.8581   65.8228 H   0  0  0  0  0
   42.6854  -47.7558   68.2660 H   0  0  0  0  0
   39.1210  -48.0698   68.9758 H   0  0  0  0  0
  1  2  1  0  0  0
  1  4  2  0  0  0
  1  5  1  0  0  0
  2  3  1  0  0  0
  5  6  1  0  0  0
  5 11  1  0  0  0
  5 64  1  0  0  0
  6  7  1  0  0  0
  7  8  1  0  0  0
  7  9  1  0  0  0
  7 10  1  0  0  0
 11 12  2  0  0  0
 11 13  1  0  0  0
 13 14  1  0  0  0
 13 17  1  0  0  0
 13 63  1  0  0  0
 14 15  1  0  0  0
 14 16  1  0  0  0
 17 18  1  0  0  0
 17 46  1  0  0  0
 17 62  1  0  0  0
 18 19  1  0  0  0
 19 20  2  0  0  0
 19 21  1  0  0  0
 21 22  1  0  0  0
 21 60  1  0  0  0
 21 61  1  0  0  0
 22 23  2  0  0  0
 22 24  1  0  0  0
 24 25  1  0  0  0
 24 27  1  0  0  0
 24 59  1  0  0  0
 25 26  1  0  0  0
 27 28  1  0  0  0
 27 57  1  0  0  0
 27 58  1  0  0  0
 28 29  1  0  0  0
 28 32  1  0  0  0
 28 56  1  0  0  0
 29 30  1  0  0  0
 29 31  1  0  0  0
 32 33  1  0  0  0
 32 35  1  0  0  0
 32 55  1  0  0  0
 33 34  1  0  0  0
 35 36  1  0  0  0
 35 39  1  0  0  0
 35 54  1  0  0  0
 36 37  1  0  0  0
 36 38  1  0  0  0
 39 40  1  0  0  0
 39 53  2  0  0  0
 40 41  1  0  0  0
 40 44  1  0  0  0
 40 52  1  0  0  0
 41 42  1  0  0  0
 41 43  1  0  0  0
 44 45  2  0  0  0
 44 46  1  0  0  0
 46 47  1  0  0  0
 46 51  1  0  0  0
 47 48  1  0  0  0
 47 49  1  0  0  0
 47 50  1  0  0  0
M  END
> <# Confs.>
25

> <Pharmacophore Match>
(1YET) [A] GDM275

> <Matching Features>
||||HBA:495067246627921590|HBA:495067385280122077|HBA:495067408768422079|HBA:495067414144822081

> <Relative Pharmacophore-Fit Score>
0.51

> <Score>
0.5135638

> <Source Database>
conformers.ldb

> <Active/Decoy>
unknown

> <Mol. Index>
254

$$$$
245
XX    ILIB11282304113D

 76 76  0  0  1  0              1 V2000
   41.7302  -49.1808   65.4823 C   0  0  0  0  0
   41.5189  -50.6891   65.5155 C   0  0  0  0  0
   42.4258  -51.4769   65.2384 O   0  0  0  0  0
   40.0998  -51.1559   65.7782 C   0  0  0  0  0
   40.1510  -52.5586   66.1870 N   0  0  0  0  0
   39.2025  -52.9140   66.3046 H   0  0  0  0  0
   40.5647  -53.1148   65.4408 H   0  0  0  0  0
   39.3865  -50.3722   66.8692 C   0  0  0  0  0
   38.5843  -50.9154   67.6334 O   0  0  0  0  0
   39.5993  -48.8453   66.8878 C   0  0  0  0  0
   38.8059  -48.1718   65.7895 C   0  0  0  0  0
   38.1073  -48.8423   65.0268 O   0  0  0  0  0
   38.8997  -46.6675   65.6775 C   0  0  0  0  0
   37.5547  -46.1286   65.8488 N   0  0  0  0  0
   37.5928  -45.1092   65.8512 H   0  0  0  0  0
   37.1928  -46.3945   66.7632 H   0  0  0  0  0
   39.4750  -46.1760   64.3687 C   0  0  0  0  0
   39.8232  -46.9810   63.5017 O   0  0  0  0  0
   39.5913  -44.6951   64.1664 C   0  0  0  0  0
   40.7409  -44.2862   63.2713 C   0  0  0  0  0
   42.1428  -44.6665   63.6936 C   0  0  0  0  0
   43.2499  -44.2347   62.7663 C   0  0  0  0  0
   43.6421  -45.1711   61.6850 C   0  0  0  0  0
   42.6571  -45.5161   60.7880 O   0  0  0  0  0
   41.8518  -45.0336   61.0420 H   0  0  0  0  0
   44.8743  -45.7062   61.5473 C   0  0  0  0  0
   46.0905  -45.6259   62.4188 C   0  0  0  0  0
   47.1691  -45.0292   61.6953 O   0  0  0  0  0
   47.2019  -43.6142   61.8374 C   0  0  0  0  0
   46.2814  -43.1709   61.4456 H   0  0  0  0  0
   48.0474  -43.2301   61.2605 H   0  0  0  0  0
   47.3381  -43.3343   62.8865 H   0  0  0  0  0
   46.4820  -47.0209   62.9296 C   0  0  0  0  0
   46.7680  -47.8866   61.8282 O   0  0  0  0  0
   47.5583  -47.5560   61.3716 H   0  0  0  0  0
   47.6657  -46.9830   63.9108 C   0  0  0  0  0
   47.2923  -46.1839   65.0198 O   0  0  0  0  0
   47.9355  -46.5915   66.2213 C   0  0  0  0  0
   47.6579  -47.6197   66.4718 H   0  0  0  0  0
   47.6037  -45.9352   67.0292 H   0  0  0  0  0
   49.0224  -46.5065   66.1272 H   0  0  0  0  0
   48.8972  -46.3701   63.2539 C   0  0  0  0  0
   49.2927  -47.0750   62.1659 O   0  0  0  0  0
   50.0997  -46.6940   61.7544 H   0  0  0  0  0
   49.4804  -45.3798   63.6717 O   0  0  0  0  0
   47.9046  -48.0090   64.2173 H   0  0  0  0  0
   45.6163  -47.4560   63.4459 H   0  0  0  0  0
   45.8218  -44.9863   63.2705 H   0  0  0  0  0
   45.0165  -46.3525   60.6794 H   0  0  0  0  0
   43.8290  -43.1513   62.9090 O   0  0  0  0  0
   42.4279  -44.1747   65.1292 C   0  0  0  0  0
   42.3107  -42.6611   65.2275 C   0  0  0  0  0
   42.9985  -42.1688   64.5329 H   0  0  0  0  0
   41.2930  -42.3317   64.9950 H   0  0  0  0  0
   42.5533  -42.3267   66.2406 H   0  0  0  0  0
   41.7257  -44.6352   65.8358 H   0  0  0  0  0
   43.4367  -44.4760   65.4367 H   0  0  0  0  0
   42.1577  -45.7639   63.6948 H   0  0  0  0  0
   40.5318  -43.6447   62.2350 O   0  0  0  0  0
   38.6499  -44.3080   63.7632 H   0  0  0  0  0
   39.7395  -44.2071   65.1440 H   0  0  0  0  0
   39.5399  -46.2963   66.4851 H   0  0  0  0  0
   41.1128  -48.5482   66.7415 C   0  0  0  0  0
   41.7994  -49.0009   67.9105 O   0  0  0  0  0
   42.6897  -48.6140   67.9014 H   0  0  0  0  0
   41.2655  -47.4623   66.6991 H   0  0  0  0  0
   39.0735  -48.2855   68.2258 C   0  0  0  0  0
   39.3386  -47.2288   68.3484 H   0  0  0  0  0
   39.4782  -48.8328   69.0836 H   0  0  0  0  0
   37.9800  -48.3545   68.2813 H   0  0  0  0  0
   39.5289  -51.0560   64.8502 H   0  0  0  0  0
   43.2126  -48.8368   65.3328 C   0  0  0  0  0
   43.5944  -49.1995   64.3718 H   0  0  0  0  0
   43.8225  -49.2974   66.1164 H   0  0  0  0  0
   43.3678  -47.7538   65.3641 H   0  0  0  0  0
   41.2111  -48.8080   64.5909 H   0  0  0  0  0
  1  2  1  0  0  0
  1 63  1  0  0  0
  1 72  1  0  0  0
  1 76  1  0  0  0
  2  3  2  0  0  0
  2  4  1  0  0  0
  4  5  1  0  0  0
  4  8  1  0  0  0
  4 71  1  0  0  0
  5  6  1  0  0  0
  5  7  1  0  0  0
  8  9  2  0  0  0
  8 10  1  0  0  0
 10 11  1  0  0  0
 10 63  1  0  0  0
 10 67  1  0  0  0
 11 12  2  0  0  0
 11 13  1  0  0  0
 13 14  1  0  0  0
 13 17  1  0  0  0
 13 62  1  0  0  0
 14 15  1  0  0  0
 14 16  1  0  0  0
 17 18  2  0  0  0
 17 19  1  0  0  0
 19 20  1  0  0  0
 19 60  1  0  0  0
 19 61  1  0  0  0
 20 21  1  0  0  0
 20 59  2  0  0  0
 21 22  1  0  0  0
 21 51  1  0  0  0
 21 58  1  0  0  0
 22 23  1  0  0  0
 22 50  2  0  0  0
 23 24  1  0  0  0
 23 26  2  0  0  0
 24 25  1  0  0  0
 26 27  1  0  0  0
 26 49  1  0  0  0
 27 28  1  0  0  0
 27 33  1  0  0  0
 27 48  1  0  0  0
 28 29  1  0  0  0
 29 30  1  0  0  0
 29 31  1  0  0  0
 29 32  1  0  0  0
 33 34  1  0  0  0
 33 36  1  0  0  0
 33 47  1  0  0  0
 34 35  1  0  0  0
 36 37  1  0  0  0
 36 42  1  0  0  0
 36 46  1  0  0  0
 37 38  1  0  0  0
 38 39  1  0  0  0
 38 40  1  0  0  0
 38 41  1  0  0  0
 42 43  1  0  0  0
 42 45  2  0  0  0
 43 44  1  0  0  0
 51 52  1  0  0  0
 51 56  1  0  0  0
 51 57  1  0  0  0
 52 53  1  0  0  0
 52 54  1  0  0  0
 52 55  1  0  0  0
 63 64  1  0  0  0
 63 66  1  0  0  0
 64 65  1  0  0  0
 67 68  1  0  0  0
 67 69  1  0  0  0
 67 70  1  0  0  0
 72 73  1  0  0  0
 72 74  1  0  0  0
 72 75  1  0  0  0
M  END
> <# Confs.>
25

> <Pharmacophore Match>
(1YET) [A] GDM275

> <Matching Features>
|H:495067279551021655|||HBA:495067246627921590|HBA:495067385280122077|HBA:495067408768422079|HBA:495067414144822081

> <Relative Pharmacophore-Fit Score>
0.61

> <Score>
0.61102825

> <Source Database>
conformers.ldb

> <Active/Decoy>
unknown

> <Mol. Index>
240

$$$$
253
XX    ILIB11282304113D

 78 78  0  0  1  0              1 V2000
   45.5550  -47.8413   67.4368 C   0  0  0  0  0
   46.3266  -47.8448   68.6751 N   0  0  0  0  0
   46.0027  -48.5766   69.3040 H   0  0  0  0  0
   46.2038  -46.9610   69.1645 H   0  0  0  0  0
   44.1055  -47.4775   67.7287 C   0  0  0  0  0
   43.5823  -46.5516   67.1005 O   0  0  0  0  0
   43.3286  -48.2487   68.8015 C   0  0  0  0  0
   43.1950  -47.3457   69.9424 N   0  0  0  0  0
   44.1164  -47.1402   70.3278 H   0  0  0  0  0
   42.6739  -47.8065   70.6864 H   0  0  0  0  0
   41.9594  -48.7810   68.3336 C   0  0  0  0  0
   42.1945  -49.6959   67.2605 O   0  0  0  0  0
   41.3521  -50.1374   67.0589 H   0  0  0  0  0
   40.9461  -47.7226   67.8802 C   0  0  0  0  0
   39.5371  -48.2812   67.7164 C   0  0  0  0  0
   39.2335  -49.4277   68.0451 O   0  0  0  0  0
   38.5037  -47.3521   67.1080 C   0  0  0  0  0
   38.0929  -47.7759   65.6969 C   0  0  0  0  0
   39.1108  -47.4114   64.6293 C   0  0  0  0  0
   40.1947  -48.4251   64.3618 C   0  0  0  0  0
   39.7732  -49.4450   63.3042 C   0  0  0  0  0
   39.5460  -48.9697   62.3555 H   0  0  0  0  0
   38.8826  -50.0111   63.6295 H   0  0  0  0  0
   40.5800  -50.1670   63.1413 H   0  0  0  0  0
   40.4422  -48.9736   65.2877 H   0  0  0  0  0
   41.0975  -47.9241   64.0402 H   0  0  0  0  0
   39.0188  -46.2483   63.9742 C   0  0  0  0  0
   39.9414  -45.7484   62.9055 C   0  0  0  0  0
   39.2923  -45.8503   61.6422 O   0  0  0  0  0
   38.4300  -45.4048   61.7037 H   0  0  0  0  0
   40.2613  -44.2723   63.1372 C   0  0  0  0  0
   39.6293  -43.3899   62.5490 O   0  0  0  0  0
   41.3509  -43.8767   64.1360 C   0  0  0  0  0
   42.7058  -44.5755   63.9070 C   0  0  0  0  0
   43.6656  -43.9798   64.7873 O   0  0  0  0  0
   43.7862  -43.0556   64.5097 H   0  0  0  0  0
   43.2360  -44.4754   62.4610 C   0  0  0  0  0
   43.2487  -43.1107   62.0731 O   0  0  0  0  0
   43.0499  -42.9377   60.6771 C   0  0  0  0  0
   43.8514  -43.4162   60.1072 H   0  0  0  0  0
   43.0624  -41.8658   60.4609 H   0  0  0  0  0
   42.0798  -43.3408   60.3740 H   0  0  0  0  0
   44.6484  -45.0449   62.3359 C   0  0  0  0  0
   45.5782  -44.4565   61.7981 O   0  0  0  0  0
   44.6894  -46.2867   62.9076 O   0  0  0  0  0
   45.8828  -46.9516   62.8997 C   0  0  0  0  0
   46.8931  -46.6497   62.2755 O   0  0  0  0  0
   45.7836  -48.1578   63.8059 C   0  0  0  0  0
   47.0297  -48.2620   64.6873 C   0  0  0  0  0
   46.9161  -49.3513   65.7557 C   0  0  0  0  0
   48.1528  -49.4312   66.5310 N   0  0  0  0  0
   48.3162  -48.5554   67.0261 H   0  0  0  0  0
   48.0746  -50.1575   67.2416 H   0  0  0  0  0
   45.7626  -49.1819   66.7453 C   0  0  0  0  0
   45.0527  -50.1549   67.0122 O   0  0  0  0  0
   46.7716  -50.3134   65.2495 H   0  0  0  0  0
   47.8921  -48.4808   64.0435 H   0  0  0  0  0
   47.2463  -47.2845   65.1389 H   0  0  0  0  0
   45.6598  -49.0502   63.1840 H   0  0  0  0  0
   44.8887  -48.0573   64.4309 H   0  0  0  0  0
   42.5859  -45.0425   61.7829 H   0  0  0  0  0
   42.6306  -45.6284   64.1998 H   0  0  0  0  0
   40.8569  -44.0546   65.5721 C   0  0  0  0  0
   39.8478  -43.6490   65.6959 H   0  0  0  0  0
   40.8331  -45.1092   65.8599 H   0  0  0  0  0
   41.5132  -43.5360   66.2785 H   0  0  0  0  0
   41.5019  -42.7958   64.0045 H   0  0  0  0  0
   40.8694  -46.3144   62.8288 H   0  0  0  0  0
   38.1811  -45.5945   64.2150 H   0  0  0  0  0
   37.8838  -48.8521   65.6575 H   0  0  0  0  0
   37.1411  -47.2837   65.4580 H   0  0  0  0  0
   38.8753  -46.3221   67.1264 H   0  0  0  0  0
   37.6292  -47.3778   67.7692 H   0  0  0  0  0
   41.2356  -47.3176   66.9071 H   0  0  0  0  0
   40.8800  -46.9075   68.6080 H   0  0  0  0  0
   41.5316  -49.3675   69.1574 H   0  0  0  0  0
   43.9250  -49.1150   69.1064 H   0  0  0  0  0
   45.9434  -47.0428   66.8004 H   0  0  0  0  0
  1  2  1  0  0  0
  1  5  1  0  0  0
  1 54  1  0  0  0
  1 78  1  0  0  0
  2  3  1  0  0  0
  2  4  1  0  0  0
  5  6  2  0  0  0
  5  7  1  0  0  0
  7  8  1  0  0  0
  7 11  1  0  0  0
  7 77  1  0  0  0
  8  9  1  0  0  0
  8 10  1  0  0  0
 11 12  1  0  0  0
 11 14  1  0  0  0
 11 76  1  0  0  0
 12 13  1  0  0  0
 14 15  1  0  0  0
 14 74  1  0  0  0
 14 75  1  0  0  0
 15 16  2  0  0  0
 15 17  1  0  0  0
 17 18  1  0  0  0
 17 72  1  0  0  0
 17 73  1  0  0  0
 18 19  1  0  0  0
 18 70  1  0  0  0
 18 71  1  0  0  0
 19 20  1  0  0  0
 19 27  2  0  0  0
 20 21  1  0  0  0
 20 25  1  0  0  0
 20 26  1  0  0  0
 21 22  1  0  0  0
 21 23  1  0  0  0
 21 24  1  0  0  0
 27 28  1  0  0  0
 27 69  1  0  0  0
 28 29  1  0  0  0
 28 31  1  0  0  0
 28 68  1  0  0  0
 29 30  1  0  0  0
 31 32  2  0  0  0
 31 33  1  0  0  0
 33 34  1  0  0  0
 33 63  1  0  0  0
 33 67  1  0  0  0
 34 35  1  0  0  0
 34 37  1  0  0  0
 34 62  1  0  0  0
 35 36  1  0  0  0
 37 38  1  0  0  0
 37 43  1  0  0  0
 37 61  1  0  0  0
 38 39  1  0  0  0
 39 40  1  0  0  0
 39 41  1  0  0  0
 39 42  1  0  0  0
 43 44  2  0  0  0
 43 45  1  0  0  0
 45 46  1  0  0  0
 46 47  2  0  0  0
 46 48  1  0  0  0
 48 49  1  0  0  0
 48 59  1  0  0  0
 48 60  1  0  0  0
 49 50  1  0  0  0
 49 57  1  0  0  0
 49 58  1  0  0  0
 50 51  1  0  0  0
 50 54  1  0  0  0
 50 56  1  0  0  0
 51 52  1  0  0  0
 51 53  1  0  0  0
 54 55  2  0  0  0
 63 64  1  0  0  0
 63 65  1  0  0  0
 63 66  1  0  0  0
M  END
> <# Confs.>
20

> <Pharmacophore Match>
(1YET) [A] GDM275

> <Matching Features>
|||H:495067340233021826|HBA:495067246627921590|HBA:495067385280122077|HBA:495067408768422079|HBA:495067414144822081

> <Relative Pharmacophore-Fit Score>
0.61

> <Score>
0.6107565

> <Source Database>
conformers.ldb

> <Active/Decoy>
unknown

> <Mol. Index>
247

$$$$
270
XX    ILIB11282304113D

 84 84  0  0  1  0              1 V2000
   42.4474  -43.0117   61.5816 C   0  0  0  0  0
   42.2257  -43.3725   63.0673 C   0  0  0  0  0
   43.5611  -43.3105   63.8515 C   0  0  0  0  0
   44.4493  -42.0920   63.6089 C   0  0  0  0  0
   44.4732  -41.6663   62.1533 C   0  0  0  0  0
   43.8611  -42.6408   61.1641 C   0  0  0  0  0
   43.7996  -42.0761   59.8653 O   0  0  0  0  0
   44.9835  -42.3117   59.1143 C   0  0  0  0  0
   45.8468  -41.8563   59.6097 H   0  0  0  0  0
   44.8631  -41.8509   58.1302 H   0  0  0  0  0
   45.1504  -43.3847   58.9796 H   0  0  0  0  0
   44.4523  -43.5641   61.1505 H   0  0  0  0  0
   44.9945  -40.6077   61.8037 O   0  0  0  0  0
   45.8806  -42.3467   64.0734 C   0  0  0  0  0
   46.3307  -43.1812   63.5234 H   0  0  0  0  0
   45.9111  -42.5929   65.1395 H   0  0  0  0  0
   46.5109  -41.4661   63.9138 H   0  0  0  0  0
   44.0174  -41.2658   64.1857 H   0  0  0  0  0
   43.8593  -44.1562   64.6962 O   0  0  0  0  0
   41.2686  -42.3315   63.6655 C   0  0  0  0  0
   40.0216  -42.3498   62.9663 O   0  0  0  0  0
   39.5911  -43.2062   63.1236 H   0  0  0  0  0
   41.0486  -42.5263   65.1697 C   0  0  0  0  0
   40.1314  -41.5149   65.7027 N   0  0  0  0  0
   39.2554  -41.5428   65.1821 H   0  0  0  0  0
   40.5201  -40.5864   65.5415 H   0  0  0  0  0
   40.4524  -43.8794   65.5050 C   0  0  0  0  0
   39.7215  -44.4505   64.6986 O   0  0  0  0  0
   40.8289  -44.4948   66.8389 C   0  0  0  0  0
   40.8213  -46.0115   66.7428 C   0  0  0  0  0
   41.1768  -46.6782   68.0561 C   0  0  0  0  0
   42.4710  -46.2726   68.4462 O   0  0  0  0  0
   42.6302  -46.6130   69.3435 H   0  0  0  0  0
   41.1907  -48.1935   67.9405 C   0  0  0  0  0
   39.9006  -48.9410   68.2178 C   0  0  0  0  0
   39.8817  -49.2488   69.6496 N   0  0  0  0  0
   40.6134  -49.9266   69.8612 H   0  0  0  0  0
   39.0032  -49.7090   69.8848 H   0  0  0  0  0
   39.7635  -50.2174   67.3760 C   0  0  0  0  0
   38.5322  -50.8771   67.6797 O   0  0  0  0  0
   37.7983  -50.3100   67.3940 H   0  0  0  0  0
   39.8777  -49.9483   65.8667 C   0  0  0  0  0
   38.8408  -49.0501   65.4976 O   0  0  0  0  0
   39.2039  -48.2232   64.3989 C   0  0  0  0  0
   40.0712  -47.6074   64.6558 H   0  0  0  0  0
   38.3631  -47.5637   64.1732 H   0  0  0  0  0
   39.4204  -48.8297   63.5135 H   0  0  0  0  0
   39.7195  -51.2374   65.0703 C   0  0  0  0  0
   40.7143  -52.3531   65.3286 C   0  0  0  0  0
   40.9274  -53.1939   64.0797 C   0  0  0  0  0
   41.9244  -54.3146   64.3298 C   0  0  0  0  0
   42.8874  -53.9159   64.6630 H   0  0  0  0  0
   41.5538  -55.0026   65.0954 H   0  0  0  0  0
   42.0922  -54.8838   63.4118 H   0  0  0  0  0
   39.9754  -53.6275   63.7486 H   0  0  0  0  0
   41.2956  -52.5630   63.2611 H   0  0  0  0  0
   40.3437  -52.9617   66.1605 H   0  0  0  0  0
   41.6591  -51.9007   65.6540 H   0  0  0  0  0
   38.8132  -51.3499   64.2416 O   0  0  0  0  0
   40.8687  -49.5244   65.6567 H   0  0  0  0  0
   40.5635  -50.9101   67.6674 H   0  0  0  0  0
   39.0652  -48.2588   68.0197 H   0  0  0  0  0
   42.2339  -48.7784   67.6417 O   0  0  0  0  0
   40.4734  -46.3850   68.8466 H   0  0  0  0  0
   41.5085  -46.3396   65.9504 H   0  0  0  0  0
   39.8159  -46.3540   66.4176 H   0  0  0  0  0
   39.9186  -43.9483   67.9543 C   0  0  0  0  0
   38.4538  -44.2550   67.6819 C   0  0  0  0  0
   38.1374  -43.8334   66.7228 H   0  0  0  0  0
   38.2783  -45.3351   67.6576 H   0  0  0  0  0
   37.8241  -43.8256   68.4666 H   0  0  0  0  0
   40.2031  -44.3847   68.9201 H   0  0  0  0  0
   40.0460  -42.8622   68.0431 H   0  0  0  0  0
   41.8483  -44.1702   67.0576 H   0  0  0  0  0
   41.9960  -42.4257   65.7124 H   0  0  0  0  0
   41.6974  -41.3335   63.5018 H   0  0  0  0  0
   41.6896  -44.8009   63.0911 C   0  0  0  0  0
   42.6740  -45.7730   62.4597 C   0  0  0  0  0
   42.8964  -45.4911   61.4271 H   0  0  0  0  0
   43.6146  -45.7973   63.0196 H   0  0  0  0  0
   42.2569  -46.7848   62.4533 H   0  0  0  0  0
   41.4899  -45.1125   64.1239 H   0  0  0  0  0
   40.7370  -44.8550   62.5509 H   0  0  0  0  0
   41.5278  -43.0479   60.7621 O   0  0  0  0  0
  1  2  1  0  0  0
  1 84  2  0  0  0
  1  6  1  0  0  0
  2  3  1  0  0  0
  2 20  1  0  0  0
  2 77  1  0  0  0
  3  4  1  0  0  0
  3 19  2  0  0  0
  4  5  1  0  0  0
  4 14  1  0  0  0
  4 18  1  0  0  0
  5  6  1  0  0  0
  5 13  2  0  0  0
  6  7  1  0  0  0
  6 12  1  0  0  0
  7  8  1  0  0  0
  8  9  1  0  0  0
  8 10  1  0  0  0
  8 11  1  0  0  0
 14 15  1  0  0  0
 14 16  1  0  0  0
 14 17  1  0  0  0
 20 21  1  0  0  0
 20 23  1  0  0  0
 20 76  1  0  0  0
 21 22  1  0  0  0
 23 24  1  0  0  0
 23 27  1  0  0  0
 23 75  1  0  0  0
 24 25  1  0  0  0
 24 26  1  0  0  0
 27 28  2  0  0  0
 27 29  1  0  0  0
 29 30  1  0  0  0
 29 67  1  0  0  0
 29 74  1  0  0  0
 30 31  1  0  0  0
 30 65  1  0  0  0
 30 66  1  0  0  0
 31 32  1  0  0  0
 31 34  1  0  0  0
 31 64  1  0  0  0
 32 33  1  0  0  0
 34 35  1  0  0  0
 34 63  2  0  0  0
 35 36  1  0  0  0
 35 39  1  0  0  0
 35 62  1  0  0  0
 36 37  1  0  0  0
 36 38  1  0  0  0
 39 40  1  0  0  0
 39 42  1  0  0  0
 39 61  1  0  0  0
 40 41  1  0  0  0
 42 43  1  0  0  0
 42 48  1  0  0  0
 42 60  1  0  0  0
 43 44  1  0  0  0
 44 45  1  0  0  0
 44 46  1  0  0  0
 44 47  1  0  0  0
 48 49  1  0  0  0
 48 59  2  0  0  0
 49 50  1  0  0  0
 49 57  1  0  0  0
 49 58  1  0  0  0
 50 51  1  0  0  0
 50 55  1  0  0  0
 50 56  1  0  0  0
 51 52  1  0  0  0
 51 53  1  0  0  0
 51 54  1  0  0  0
 67 68  1  0  0  0
 67 72  1  0  0  0
 67 73  1  0  0  0
 68 69  1  0  0  0
 68 70  1  0  0  0
 68 71  1  0  0  0
 77 78  1  0  0  0
 77 82  1  0  0  0
 77 83  1  0  0  0
 78 79  1  0  0  0
 78 80  1  0  0  0
 78 81  1  0  0  0
M  END
> <# Confs.>
25

> <Pharmacophore Match>
(1YET) [A] GDM275

> <Matching Features>
||||HBA:495067246627921590|HBA:495067385280122077|HBA:495067408768422079|HBA:495067414144822081

> <Relative Pharmacophore-Fit Score>
0.50

> <Score>
0.5033215

> <Source Database>
conformers.ldb

> <Active/Decoy>
unknown

> <Mol. Index>
264

$$$$
281
XX    ILIB11282304113D

 44 43  0  0  1  0              1 V2000
   42.8899  -46.6396   64.0485 C   0  0  0  0  0
   42.5373  -47.9149   64.8114 C   0  0  0  0  0
   42.8846  -47.9598   66.2785 C   0  0  0  0  0
   41.9723  -48.8075   67.1494 C   0  0  0  0  0
   40.5181  -48.9279   66.7252 C   0  0  0  0  0
   39.8598  -49.7570   67.6667 O   0  0  0  0  0
   39.9109  -51.1324   67.3082 C   0  0  0  0  0
   39.4110  -51.2947   66.3485 H   0  0  0  0  0
   39.3878  -51.7063   68.0758 H   0  0  0  0  0
   40.9471  -51.4806   67.2572 H   0  0  0  0  0
   39.7375  -47.6280   66.6834 C   0  0  0  0  0
   38.7596  -47.6554   65.7453 O   0  0  0  0  0
   38.2689  -46.8066   65.7021 H   0  0  0  0  0
   39.9763  -46.6567   67.3879 O   0  0  0  0  0
   40.5281  -49.3599   65.7155 H   0  0  0  0  0
   42.4030  -49.3538   68.1632 O   0  0  0  0  0
   44.3433  -48.3822   66.4832 C   0  0  0  0  0
   44.6154  -49.7661   65.9001 C   0  0  0  0  0
   46.3107  -50.2533   66.1383 Cl  0  0  0  0  0
   43.9806  -50.5246   66.3684 H   0  0  0  0  0
   44.4205  -49.7708   64.8243 H   0  0  0  0  0
   44.5947  -48.3717   67.5524 H   0  0  0  0  0
   45.0111  -47.6534   66.0052 H   0  0  0  0  0
   42.7658  -46.9193   66.6491 H   0  0  0  0  0
   41.9913  -48.8408   64.2354 O   0  0  0  0  0
   41.7373  -45.6446   64.1046 C   0  0  0  0  0
   42.0514  -44.3553   63.3439 C   0  0  0  0  0
   43.1958  -43.7632   63.9329 O   0  0  0  0  0
   43.9644  -43.0188   62.9956 C   0  0  0  0  0
   44.3296  -43.6725   62.1977 H   0  0  0  0  0
   44.8247  -42.5933   63.5189 H   0  0  0  0  0
   43.3732  -42.2020   62.5724 H   0  0  0  0  0
   40.8870  -43.3745   63.4314 C   0  0  0  0  0
   40.3932  -43.0650   62.2079 O   0  0  0  0  0
   39.6592  -42.4155   62.2628 H   0  0  0  0  0
   40.4665  -42.8967   64.4764 O   0  0  0  0  0
   42.2250  -44.6004   62.2885 H   0  0  0  0  0
   41.4947  -45.4110   65.1499 H   0  0  0  0  0
   40.8356  -46.1030   63.6764 H   0  0  0  0  0
   43.2923  -47.0086   62.6229 C   0  0  0  0  0
   42.4354  -47.3681   62.0429 H   0  0  0  0  0
   43.7187  -46.1489   62.0976 H   0  0  0  0  0
   44.0458  -47.8036   62.6256 H   0  0  0  0  0
   43.7634  -46.2081   64.5563 H   0  0  0  0  0
  1  2  1  0  0  0
  1 26  1  0  0  0
  1 40  1  0  0  0
  1 44  1  0  0  0
  2  3  1  0  0  0
  2 25  2  0  0  0
  3  4  1  0  0  0
  3 17  1  0  0  0
  3 24  1  0  0  0
  4  5  1  0  0  0
  4 16  2  0  0  0
  5  6  1  0  0  0
  5 11  1  0  0  0
  5 15  1  0  0  0
  6  7  1  0  0  0
  7  8  1  0  0  0
  7  9  1  0  0  0
  7 10  1  0  0  0
 11 12  1  0  0  0
 11 14  2  0  0  0
 12 13  1  0  0  0
 17 18  1  0  0  0
 17 22  1  0  0  0
 17 23  1  0  0  0
 18 19  1  0  0  0
 18 20  1  0  0  0
 18 21  1  0  0  0
 26 27  1  0  0  0
 26 38  1  0  0  0
 26 39  1  0  0  0
 27 28  1  0  0  0
 27 33  1  0  0  0
 27 37  1  0  0  0
 28 29  1  0  0  0
 29 30  1  0  0  0
 29 31  1  0  0  0
 29 32  1  0  0  0
 33 34  1  0  0  0
 33 36  2  0  0  0
 34 35  1  0  0  0
 40 41  1  0  0  0
 40 42  1  0  0  0
 40 43  1  0  0  0
M  END
> <# Confs.>
25

> <Pharmacophore Match>
(1YET) [A] GDM275

> <Matching Features>
||||HBA:495067246627921590|HBA:495067385280122077|HBA:495067408768422079|HBA:495067414144822081

> <Relative Pharmacophore-Fit Score>
0.49

> <Score>
0.4928017

> <Source Database>
conformers.ldb

> <Active/Decoy>
unknown

> <Mol. Index>
266

$$$$
294
XX    ILIB11282304113D

 83 83  0  0  1  0              1 V2000
   38.4645  -51.4944   67.3833 O   0  0  0  0  0
   38.3663  -51.7804   68.7735 C   0  0  0  0  0
   38.2074  -50.8643   69.3527 H   0  0  0  0  0
   39.2537  -52.3154   69.1274 H   0  0  0  0  0
   37.4994  -52.4285   68.9239 H   0  0  0  0  0
   39.5111  -50.6763   67.0363 C   0  0  0  0  0
   39.2492  -49.5110   66.4319 C   0  0  0  0  0
   40.1473  -48.4879   65.8108 C   0  0  0  0  0
   39.7919  -48.3294   64.3359 C   0  0  0  0  0
   39.9527  -49.5553   63.6442 O   0  0  0  0  0
   40.8964  -49.7870   63.6611 H   0  0  0  0  0
   38.3995  -47.7799   64.1457 C   0  0  0  0  0
   37.4089  -48.7274   64.0542 N   0  0  0  0  0
   36.4452  -48.4458   63.9248 H   0  0  0  0  0
   37.6480  -49.7091   64.1092 H   0  0  0  0  0
   38.1168  -46.4627   64.0645 C   0  0  0  0  0
   39.0592  -45.2966   64.1728 C   0  0  0  0  0
   39.0098  -44.4924   62.8875 C   0  0  0  0  0
   40.2554  -43.7487   62.4512 C   0  0  0  0  0
   41.4356  -44.6743   62.2259 C   0  0  0  0  0
   42.8317  -44.1391   62.4672 C   0  0  0  0  0
   43.7863  -45.1540   62.2028 O   0  0  0  0  0
   44.2224  -45.1572   60.8501 C   0  0  0  0  0
   44.7423  -44.2242   60.6150 H   0  0  0  0  0
   44.9225  -45.9867   60.7175 H   0  0  0  0  0
   43.3806  -45.3018   60.1668 H   0  0  0  0  0
   43.1304  -43.7153   63.8906 C   0  0  0  0  0
   44.4019  -43.2479   64.0193 O   0  0  0  0  0
   44.9375  -43.2622   63.1928 H   0  0  0  0  0
   42.3545  -43.7823   64.8342 O   0  0  0  0  0
   42.9605  -43.2564   61.8261 H   0  0  0  0  0
   41.2756  -45.8433   61.8651 O   0  0  0  0  0
   39.9985  -42.8530   61.2428 C   0  0  0  0  0
   39.7280  -43.4297   60.3512 H   0  0  0  0  0
   40.8915  -42.2719   60.9932 H   0  0  0  0  0
   39.1805  -42.1544   61.4443 H   0  0  0  0  0
   40.5293  -43.0851   63.2817 H   0  0  0  0  0
   37.9883  -44.4448   62.1964 O   0  0  0  0  0
   38.6925  -44.4211   65.3668 C   0  0  0  0  0
   39.4122  -43.6052   65.4914 H   0  0  0  0  0
   37.7040  -43.9641   65.2410 H   0  0  0  0  0
   38.6837  -45.0024   66.2952 H   0  0  0  0  0
   40.0859  -45.6663   64.2897 H   0  0  0  0  0
   37.0698  -46.1902   63.9158 H   0  0  0  0  0
   40.4845  -47.6027   63.8759 H   0  0  0  0  0
   40.2015  -47.1288   66.5655 C   0  0  0  0  0
   40.6894  -47.2729   68.0004 C   0  0  0  0  0
   40.0471  -47.9558   68.5656 H   0  0  0  0  0
   41.7148  -47.6525   68.0398 H   0  0  0  0  0
   40.6747  -46.3006   68.5023 H   0  0  0  0  0
   40.8543  -46.4228   66.0358 H   0  0  0  0  0
   39.2011  -46.6784   66.5830 H   0  0  0  0  0
   41.1631  -48.9011   65.8713 H   0  0  0  0  0
   38.1865  -49.2538   66.3308 H   0  0  0  0  0
   40.8974  -51.1750   67.2637 C   0  0  0  0  0
   41.4806  -50.9666   68.3278 O   0  0  0  0  0
   41.5651  -51.9409   66.1464 C   0  0  0  0  0
   41.2819  -53.4421   66.2654 C   0  0  0  0  0
   41.8198  -53.8417   67.5563 O   0  0  0  0  0
   41.7948  -55.1311   67.9681 C   0  0  0  0  0
   41.4719  -56.1861   66.9417 C   0  0  0  0  0
   40.2139  -56.8042   67.3420 N   0  0  0  0  0
   40.0051  -57.5863   66.7224 H   0  0  0  0  0
   40.3094  -57.2096   68.2732 H   0  0  0  0  0
   41.3326  -55.7397   65.5055 C   0  0  0  0  0
   41.8682  -54.3562   65.1826 C   0  0  0  0  0
   41.5161  -53.9619   63.7528 C   0  0  0  0  0
   42.0042  -53.0271   63.4630 H   0  0  0  0  0
   40.4350  -53.8461   63.6258 H   0  0  0  0  0
   41.8491  -54.7256   63.0416 H   0  0  0  0  0
   42.9586  -54.4238   65.2794 H   0  0  0  0  0
   40.8710  -56.4885   64.6444 O   0  0  0  0  0
   42.2938  -56.9139   66.9603 H   0  0  0  0  0
   42.0452  -55.4259   69.1345 O   0  0  0  0  0
   40.1932  -53.5767   66.3339 H   0  0  0  0  0
   43.0649  -51.6273   66.1495 C   0  0  0  0  0
   43.3532  -50.1464   65.9448 C   0  0  0  0  0
   42.9257  -49.7911   64.9933 H   0  0  0  0  0
   42.9406  -49.5404   66.7578 H   0  0  0  0  0
   44.4329  -49.9733   65.9164 H   0  0  0  0  0
   43.5227  -51.9534   67.0924 H   0  0  0  0  0
   43.5611  -52.1909   65.3487 H   0  0  0  0  0
   41.1323  -51.5735   65.2056 H   0  0  0  0  0
  1  2  1  0  0  0
  1  6  1  0  0  0
  2  3  1  0  0  0
  2  4  1  0  0  0
  2  5  1  0  0  0
  6  7  2  0  0  0
  6 55  1  0  0  0
  7  8  1  0  0  0
  7 54  1  0  0  0
  8  9  1  0  0  0
  8 46  1  0  0  0
  8 53  1  0  0  0
  9 10  1  0  0  0
  9 12  1  0  0  0
  9 45  1  0  0  0
 10 11  1  0  0  0
 12 13  1  0  0  0
 12 16  2  0  0  0
 13 14  1  0  0  0
 13 15  1  0  0  0
 16 17  1  0  0  0
 16 44  1  0  0  0
 17 18  1  0  0  0
 17 39  1  0  0  0
 17 43  1  0  0  0
 18 19  1  0  0  0
 18 38  2  0  0  0
 19 20  1  0  0  0
 19 33  1  0  0  0
 19 37  1  0  0  0
 20 21  1  0  0  0
 20 32  2  0  0  0
 21 22  1  0  0  0
 21 27  1  0  0  0
 21 31  1  0  0  0
 22 23  1  0  0  0
 23 24  1  0  0  0
 23 25  1  0  0  0
 23 26  1  0  0  0
 27 28  1  0  0  0
 27 30  2  0  0  0
 28 29  1  0  0  0
 33 34  1  0  0  0
 33 35  1  0  0  0
 33 36  1  0  0  0
 39 40  1  0  0  0
 39 41  1  0  0  0
 39 42  1  0  0  0
 46 47  1  0  0  0
 46 51  1  0  0  0
 46 52  1  0  0  0
 47 48  1  0  0  0
 47 49  1  0  0  0
 47 50  1  0  0  0
 55 56  2  0  0  0
 55 57  1  0  0  0
 57 58  1  0  0  0
 57 76  1  0  0  0
 57 83  1  0  0  0
 58 59  1  0  0  0
 58 66  1  0  0  0
 58 75  1  0  0  0
 59 60  1  0  0  0
 60 61  1  0  0  0
 60 74  2  0  0  0
 61 62  1  0  0  0
 61 65  1  0  0  0
 61 73  1  0  0  0
 62 63  1  0  0  0
 62 64  1  0  0  0
 65 66  1  0  0  0
 65 72  2  0  0  0
 66 67  1  0  0  0
 66 71  1  0  0  0
 67 68  1  0  0  0
 67 69  1  0  0  0
 67 70  1  0  0  0
 76 77  1  0  0  0
 76 81  1  0  0  0
 76 82  1  0  0  0
 77 78  1  0  0  0
 77 79  1  0  0  0
 77 80  1  0  0  0
M  END
> <# Confs.>
25

> <Pharmacophore Match>
(1YET) [A] GDM275

> <Matching Features>
H:495067227192821472||||HBA:495067246627921590|HBA:495067385280122077|HBA:495067408768422079|HBA:495067414144822081

> <Relative Pharmacophore-Fit Score>
0.61

> <Score>
0.61274344

> <Source Database>
conformers.ldb

> <Active/Decoy>
unknown

> <Mol. Index>
280

$$$$
284
XX    ILIB11282304113D

 66 66  0  0  1  0              1 V2000
   40.3962  -50.3519   67.3015 C   0  0  0  0  0
   41.6576  -49.8569   67.2988 O   0  0  0  0  0
   41.7795  -49.1589   67.9773 H   0  0  0  0  0
   39.5184  -49.9720   68.0654 O   0  0  0  0  0
   40.2203  -51.4450   66.2874 C   0  0  0  0  0
   38.8814  -51.9152   66.3452 O   0  0  0  0  0
   38.7225  -52.9864   67.2672 C   0  0  0  0  0
   39.3380  -53.8406   66.9694 H   0  0  0  0  0
   37.6739  -53.2934   67.2590 H   0  0  0  0  0
   38.9848  -52.6678   68.2804 H   0  0  0  0  0
   40.4896  -50.9163   64.8785 C   0  0  0  0  0
   40.3099  -51.9756   63.9210 O   0  0  0  0  0
   39.3764  -52.2451   63.9212 H   0  0  0  0  0
   39.6086  -49.7181   64.5167 C   0  0  0  0  0
   38.2444  -50.1721   64.6188 O   0  0  0  0  0
   37.3492  -49.1320   64.9902 C   0  0  0  0  0
   37.6175  -48.7302   65.9718 H   0  0  0  0  0
   36.3416  -49.5511   65.0489 H   0  0  0  0  0
   37.3518  -48.3332   64.2424 H   0  0  0  0  0
   39.8783  -49.2163   63.0990 C   0  0  0  0  0
   39.0521  -48.0992   62.7826 O   0  0  0  0  0
   39.3020  -47.3568   63.3683 H   0  0  0  0  0
   41.3726  -48.8624   62.8838 C   0  0  0  0  0
   41.5859  -48.4014   61.5475 O   0  0  0  0  0
   41.1091  -47.5633   61.4293 H   0  0  0  0  0
   41.8862  -47.8306   63.9018 C   0  0  0  0  0
   41.1000  -46.6259   63.7546 O   0  0  0  0  0
   41.0136  -45.7781   64.8180 C   0  0  0  0  0
   40.3299  -44.4919   64.4049 C   0  0  0  0  0
   40.8966  -43.9158   63.1005 C   0  0  0  0  0
   42.3309  -43.4031   63.1524 C   0  0  0  0  0
   42.5385  -42.4398   62.0746 N   0  0  0  0  0
   42.3573  -42.8817   61.1727 H   0  0  0  0  0
   41.8665  -41.6786   62.1600 H   0  0  0  0  0
   43.4241  -44.4534   63.0356 C   0  0  0  0  0
   43.2707  -45.5788   62.0126 C   0  0  0  0  0
   43.9196  -45.1058   60.7878 N   0  0  0  0  0
   44.9218  -45.0066   60.9430 H   0  0  0  0  0
   43.8216  -45.8127   60.0595 H   0  0  0  0  0
   43.9139  -46.8995   62.4735 C   0  0  0  0  0
   43.3956  -47.4886   63.8068 C   0  0  0  0  0
   44.1832  -48.6908   64.1139 N   0  0  0  0  0
   45.1711  -48.4498   64.1652 H   0  0  0  0  0
   43.9260  -49.0409   65.0358 H   0  0  0  0  0
   43.6222  -46.7572   64.5907 H   0  0  0  0  0
   44.9973  -46.7392   62.5785 H   0  0  0  0  0
   43.8064  -47.6473   61.6770 H   0  0  0  0  0
   42.2172  -45.7376   61.7857 H   0  0  0  0  0
   44.4557  -44.3387   63.7058 O   0  0  0  0  0
   42.4613  -42.8800   64.1047 H   0  0  0  0  0
   40.2306  -43.8874   62.0647 O   0  0  0  0  0
   38.8240  -44.7044   64.3153 C   0  0  0  0  0
   38.2243  -45.1432   65.6484 C   0  0  0  0  0
   38.5047  -43.9311   66.9203 Cl  0  0  0  0  0
   37.1441  -45.2975   65.5647 H   0  0  0  0  0
   38.6801  -46.0797   65.9813 H   0  0  0  0  0
   38.5964  -45.4488   63.5406 H   0  0  0  0  0
   38.3398  -43.7724   63.9934 H   0  0  0  0  0
   40.5308  -43.7406   65.1802 H   0  0  0  0  0
   41.4228  -45.9940   65.9507 O   0  0  0  0  0
   41.6794  -48.2350   64.9029 H   0  0  0  0  0
   41.9649  -49.7805   62.9902 H   0  0  0  0  0
   39.6171  -50.0056   62.3835 H   0  0  0  0  0
   39.7769  -48.9228   65.2519 H   0  0  0  0  0
   41.5330  -50.6170   64.8070 H   0  0  0  0  0
   40.9371  -52.2469   66.5070 H   0  0  0  0  0
  1  2  1  0  0  0
  1  4  2  0  0  0
  1  5  1  0  0  0
  2  3  1  0  0  0
  5  6  1  0  0  0
  5 11  1  0  0  0
  5 66  1  0  0  0
  6  7  1  0  0  0
  7  8  1  0  0  0
  7  9  1  0  0  0
  7 10  1  0  0  0
 11 12  1  0  0  0
 11 14  1  0  0  0
 11 65  1  0  0  0
 12 13  1  0  0  0
 14 15  1  0  0  0
 14 20  1  0  0  0
 14 64  1  0  0  0
 15 16  1  0  0  0
 16 17  1  0  0  0
 16 18  1  0  0  0
 16 19  1  0  0  0
 20 21  1  0  0  0
 20 23  1  0  0  0
 20 63  1  0  0  0
 21 22  1  0  0  0
 23 24  1  0  0  0
 23 26  1  0  0  0
 23 62  1  0  0  0
 24 25  1  0  0  0
 26 27  1  0  0  0
 26 41  1  0  0  0
 26 61  1  0  0  0
 27 28  1  0  0  0
 28 29  1  0  0  0
 28 60  2  0  0  0
 29 30  1  0  0  0
 29 52  1  0  0  0
 29 59  1  0  0  0
 30 31  1  0  0  0
 30 51  2  0  0  0
 31 32  1  0  0  0
 31 35  1  0  0  0
 31 50  1  0  0  0
 32 33  1  0  0  0
 32 34  1  0  0  0
 35 36  1  0  0  0
 35 49  2  0  0  0
 36 37  1  0  0  0
 36 40  1  0  0  0
 36 48  1  0  0  0
 37 38  1  0  0  0
 37 39  1  0  0  0
 40 41  1  0  0  0
 40 46  1  0  0  0
 40 47  1  0  0  0
 41 42  1  0  0  0
 41 45  1  0  0  0
 42 43  1  0  0  0
 42 44  1  0  0  0
 52 53  1  0  0  0
 52 57  1  0  0  0
 52 58  1  0  0  0
 53 54  1  0  0  0
 53 55  1  0  0  0
 53 56  1  0  0  0
M  END
> <# Confs.>
25

> <Pharmacophore Match>
(1YET) [A] GDM275

> <Matching Features>
||||HBA:495067246627921590|HBA:495067385280122077|HBA:495067408768422079|HBA:495067414144822081

> <Relative Pharmacophore-Fit Score>
0.50

> <Score>
0.5006153

> <Source Database>
conformers.ldb

> <Active/Decoy>
unknown

> <Mol. Index>
282

$$$$
262
XX    ILIB11282304113D

 64 64  0  0  1  0              1 V2000
   44.9992  -49.0671   64.8684 C   0  0  0  0  0
   46.3213  -48.5397   65.1934 N   0  0  0  0  0
   46.2391  -47.7192   65.7899 H   0  0  0  0  0
   46.8412  -49.2307   65.7339 H   0  0  0  0  0
   44.3151  -48.0651   63.9538 C   0  0  0  0  0
   43.8667  -46.7212   64.5334 C   0  0  0  0  0
   42.4272  -46.8166   64.7374 N   0  0  0  0  0
   42.1049  -46.0007   65.2565 H   0  0  0  0  0
   42.2102  -47.6145   65.3280 H   0  0  0  0  0
   44.2981  -45.5461   63.6171 C   0  0  0  0  0
   44.4931  -44.3749   64.4139 O   0  0  0  0  0
   45.1737  -44.5796   65.0775 H   0  0  0  0  0
   43.3438  -45.2166   62.4366 C   0  0  0  0  0
   44.1346  -44.5975   61.3620 N   0  0  0  0  0
   43.5224  -44.3488   60.5859 H   0  0  0  0  0
   44.5384  -43.7244   61.6944 H   0  0  0  0  0
   42.1719  -44.2751   62.8158 C   0  0  0  0  0
   40.9806  -44.3882   61.8573 C   0  0  0  0  0
   41.3325  -43.8207   60.6037 O   0  0  0  0  0
   40.6073  -44.0083   59.9846 H   0  0  0  0  0
   39.7425  -43.6635   62.3887 C   0  0  0  0  0
   39.1563  -44.1127   63.7135 C   0  0  0  0  0
   38.8423  -45.5846   63.8096 C   0  0  0  0  0
   39.0259  -45.9929   65.1020 O   0  0  0  0  0
   38.7475  -47.3001   65.4090 C   0  0  0  0  0
   39.1350  -47.5754   66.8508 C   0  0  0  0  0
   40.2956  -46.8804   67.2334 O   0  0  0  0  0
   40.3009  -46.5578   68.6352 C   0  0  0  0  0
   40.2452  -47.4672   69.2405 H   0  0  0  0  0
   39.4731  -45.8874   68.8831 H   0  0  0  0  0
   41.2418  -46.0476   68.8603 H   0  0  0  0  0
   39.4158  -49.0427   67.1579 C   0  0  0  0  0
   40.4552  -49.7714   66.3000 C   0  0  0  0  0
   39.9738  -51.1348   66.0835 N   0  0  0  0  0
   39.0336  -51.1130   65.6913 H   0  0  0  0  0
   39.9091  -51.6260   66.9742 H   0  0  0  0  0
   41.8572  -49.7297   66.9422 C   0  0  0  0  0
   41.8519  -50.4665   68.1644 O   0  0  0  0  0
   42.7225  -50.3444   68.5804 H   0  0  0  0  0
   42.9636  -50.2365   65.9818 C   0  0  0  0  0
   44.2402  -49.4019   66.1463 C   0  0  0  0  0
   44.6396  -49.0584   67.2600 O   0  0  0  0  0
   43.3317  -51.7095   66.1450 C   0  0  0  0  0
   42.4573  -52.3577   66.0458 H   0  0  0  0  0
   43.7984  -51.9047   67.1162 H   0  0  0  0  0
   44.0554  -52.0130   65.3789 H   0  0  0  0  0
   42.6252  -50.0720   64.9515 H   0  0  0  0  0
   42.0647  -48.6923   67.2248 H   0  0  0  0  0
   40.4957  -49.2821   65.3228 H   0  0  0  0  0
   38.8519  -49.6016   68.1024 O   0  0  0  0  0
   38.2607  -47.2886   67.4743 H   0  0  0  0  0
   38.2209  -48.1230   64.6763 O   0  0  0  0  0
   38.4617  -46.2641   62.8657 O   0  0  0  0  0
   39.8503  -43.8165   64.5053 H   0  0  0  0  0
   38.2188  -43.5708   63.8808 H   0  0  0  0  0
   39.2301  -42.7281   61.7702 O   0  0  0  0  0
   40.7191  -45.4371   61.6868 H   0  0  0  0  0
   41.8406  -44.4909   63.8321 H   0  0  0  0  0
   42.5238  -43.2345   62.8397 H   0  0  0  0  0
   42.9485  -46.1541   62.0314 H   0  0  0  0  0
   45.2851  -45.8021   63.2071 H   0  0  0  0  0
   44.3371  -46.5925   65.5148 H   0  0  0  0  0
   44.1248  -48.3474   62.7678 O   0  0  0  0  0
   45.1390  -50.0001   64.3111 H   0  0  0  0  0
  1  2  1  0  0  0
  1  5  1  0  0  0
  1 41  1  0  0  0
  1 64  1  0  0  0
  2  3  1  0  0  0
  2  4  1  0  0  0
  5  6  1  0  0  0
  5 63  2  0  0  0
  6  7  1  0  0  0
  6 10  1  0  0  0
  6 62  1  0  0  0
  7  8  1  0  0  0
  7  9  1  0  0  0
 10 11  1  0  0  0
 10 13  1  0  0  0
 10 61  1  0  0  0
 11 12  1  0  0  0
 13 14  1  0  0  0
 13 17  1  0  0  0
 13 60  1  0  0  0
 14 15  1  0  0  0
 14 16  1  0  0  0
 17 18  1  0  0  0
 17 58  1  0  0  0
 17 59  1  0  0  0
 18 19  1  0  0  0
 18 21  1  0  0  0
 18 57  1  0  0  0
 19 20  1  0  0  0
 21 22  1  0  0  0
 21 56  2  0  0  0
 22 23  1  0  0  0
 22 54  1  0  0  0
 22 55  1  0  0  0
 23 24  1  0  0  0
 23 53  2  0  0  0
 24 25  1  0  0  0
 25 26  1  0  0  0
 25 52  2  0  0  0
 26 27  1  0  0  0
 26 32  1  0  0  0
 26 51  1  0  0  0
 27 28  1  0  0  0
 28 29  1  0  0  0
 28 30  1  0  0  0
 28 31  1  0  0  0
 32 33  1  0  0  0
 32 50  2  0  0  0
 33 34  1  0  0  0
 33 37  1  0  0  0
 33 49  1  0  0  0
 34 35  1  0  0  0
 34 36  1  0  0  0
 37 38  1  0  0  0
 37 40  1  0  0  0
 37 48  1  0  0  0
 38 39  1  0  0  0
 40 41  1  0  0  0
 40 43  1  0  0  0
 40 47  1  0  0  0
 41 42  2  0  0  0
 43 44  1  0  0  0
 43 45  1  0  0  0
 43 46  1  0  0  0
M  END
> <# Confs.>
25

> <Pharmacophore Match>
(1YET) [A] GDM275

> <Matching Features>
||||HBA:495067246627921590|HBA:495067385280122077|HBA:495067408768422079|HBA:495067414144822081

> <Relative Pharmacophore-Fit Score>
0.51

> <Score>
0.5087799

> <Source Database>
conformers.ldb

> <Active/Decoy>
unknown

> <Mol. Index>
260

$$$$
325
XX    ILIB11282304113D

 67 67  0  0  1  0              1 V2000
   39.9115  -52.5403   64.3865 C   0  0  0  0  0
   41.0010  -51.9338   65.2734 C   0  0  0  0  0
   42.0744  -52.5010   65.4759 O   0  0  0  0  0
   40.7157  -50.5444   65.8488 C   0  0  0  0  0
   41.6583  -50.3144   66.8851 O   0  0  0  0  0
   41.5263  -50.9942   67.5668 H   0  0  0  0  0
   39.3087  -50.4570   66.4387 C   0  0  0  0  0
   39.0993  -49.9098   67.5214 O   0  0  0  0  0
   38.1820  -51.0316   65.5871 C   0  0  0  0  0
   38.5391  -52.4151   65.0513 C   0  0  0  0  0
   37.7392  -53.3509   65.0855 O   0  0  0  0  0
   36.8672  -51.0585   66.3619 C   0  0  0  0  0
   36.9392  -51.7090   67.2400 H   0  0  0  0  0
   36.0477  -51.4316   65.7378 H   0  0  0  0  0
   36.5942  -50.0560   66.7094 H   0  0  0  0  0
   38.0522  -50.3730   64.7207 H   0  0  0  0  0
   40.9410  -49.4976   64.7601 C   0  0  0  0  0
   40.6837  -48.0988   65.2349 C   0  0  0  0  0
   41.8771  -47.3901   65.8138 C   0  0  0  0  0
   42.6481  -47.2649   65.0462 H   0  0  0  0  0
   42.3050  -47.9714   66.6376 H   0  0  0  0  0
   41.6446  -46.4014   66.2145 H   0  0  0  0  0
   39.4552  -47.5578   65.1143 C   0  0  0  0  0
   39.0173  -46.1765   65.4825 C   0  0  0  0  0
   39.2261  -45.2733   64.2872 C   0  0  0  0  0
   39.5361  -43.8135   64.5325 C   0  0  0  0  0
   40.3769  -43.1892   63.4561 C   0  0  0  0  0
   41.8756  -43.2607   63.6210 C   0  0  0  0  0
   42.4293  -44.5338   62.9770 C   0  0  0  0  0
   43.9419  -44.7443   63.0655 C   0  0  0  0  0
   44.3869  -44.8067   64.4064 O   0  0  0  0  0
   45.7162  -44.3291   64.5662 C   0  0  0  0  0
   46.4138  -44.9105   63.9546 H   0  0  0  0  0
   45.9988  -44.4423   65.6167 H   0  0  0  0  0
   45.7759  -43.2691   64.3019 H   0  0  0  0  0
   44.3278  -46.0975   62.5102 C   0  0  0  0  0
   43.9648  -46.2129   61.2094 O   0  0  0  0  0
   44.2199  -47.0815   60.8321 H   0  0  0  0  0
   44.9132  -46.9671   63.1383 O   0  0  0  0  0
   44.4735  -43.9736   62.4902 H   0  0  0  0  0
   42.1573  -44.5023   61.9131 H   0  0  0  0  0
   41.9165  -45.4091   63.3962 H   0  0  0  0  0
   42.5522  -41.9859   63.1076 C   0  0  0  0  0
   43.6348  -42.0207   63.2666 H   0  0  0  0  0
   42.1650  -41.1091   63.6371 H   0  0  0  0  0
   42.3668  -41.8285   62.0403 H   0  0  0  0  0
   42.0720  -43.3001   64.7010 H   0  0  0  0  0
   39.8789  -42.5868   62.5038 O   0  0  0  0  0
   38.2619  -42.9892   64.7459 C   0  0  0  0  0
   38.5043  -41.9395   64.9409 H   0  0  0  0  0
   37.6814  -43.3665   65.5942 H   0  0  0  0  0
   37.6151  -43.0224   63.8621 H   0  0  0  0  0
   40.1045  -43.7826   65.4784 H   0  0  0  0  0
   39.0662  -45.6862   63.1261 O   0  0  0  0  0
   37.9673  -46.1673   65.7652 H   0  0  0  0  0
   39.5896  -45.7780   66.3308 H   0  0  0  0  0
   38.6669  -48.1729   64.6819 H   0  0  0  0  0
   41.9724  -49.5595   64.3943 H   0  0  0  0  0
   40.2924  -49.7343   63.9066 H   0  0  0  0  0
   40.2423  -53.9872   64.0171 C   0  0  0  0  0
   41.5440  -54.2162   63.2483 C   0  0  0  0  0
   41.5486  -53.3452   61.6963 Cl  0  0  0  0  0
   42.4104  -53.8769   63.8250 H   0  0  0  0  0
   41.6758  -55.2791   63.0288 H   0  0  0  0  0
   39.4169  -54.3594   63.3952 H   0  0  0  0  0
   40.2436  -54.6075   64.9231 H   0  0  0  0  0
   39.8808  -51.9454   63.4653 H   0  0  0  0  0
  1  2  1  0  0  0
  1 10  1  0  0  0
  1 60  1  0  0  0
  1 67  1  0  0  0
  2  3  2  0  0  0
  2  4  1  0  0  0
  4  5  1  0  0  0
  4  7  1  0  0  0
  4 17  1  0  0  0
  5  6  1  0  0  0
  7  8  2  0  0  0
  7  9  1  0  0  0
  9 10  1  0  0  0
  9 12  1  0  0  0
  9 16  1  0  0  0
 10 11  2  0  0  0
 12 13  1  0  0  0
 12 14  1  0  0  0
 12 15  1  0  0  0
 17 18  1  0  0  0
 17 58  1  0  0  0
 17 59  1  0  0  0
 18 19  1  0  0  0
 18 23  2  0  0  0
 19 20  1  0  0  0
 19 21  1  0  0  0
 19 22  1  0  0  0
 23 24  1  0  0  0
 23 57  1  0  0  0
 24 25  1  0  0  0
 24 55  1  0  0  0
 24 56  1  0  0  0
 25 26  1  0  0  0
 25 54  2  0  0  0
 26 27  1  0  0  0
 26 49  1  0  0  0
 26 53  1  0  0  0
 27 28  1  0  0  0
 27 48  2  0  0  0
 28 29  1  0  0  0
 28 43  1  0  0  0
 28 47  1  0  0  0
 29 30  1  0  0  0
 29 41  1  0  0  0
 29 42  1  0  0  0
 30 31  1  0  0  0
 30 36  1  0  0  0
 30 40  1  0  0  0
 31 32  1  0  0  0
 32 33  1  0  0  0
 32 34  1  0  0  0
 32 35  1  0  0  0
 36 37  1  0  0  0
 36 39  2  0  0  0
 37 38  1  0  0  0
 43 44  1  0  0  0
 43 45  1  0  0  0
 43 46  1  0  0  0
 49 50  1  0  0  0
 49 51  1  0  0  0
 49 52  1  0  0  0
 60 61  1  0  0  0
 60 65  1  0  0  0
 60 66  1  0  0  0
 61 62  1  0  0  0
 61 63  1  0  0  0
 61 64  1  0  0  0
M  END
> <# Confs.>
25

> <Pharmacophore Match>
(1YET) [A] GDM275

> <Matching Features>
|H:495067279551021655|||HBA:495067246627921590|HBA:495067385280122077|HBA:495067408768422079|HBA:495067414144822081

> <Relative Pharmacophore-Fit Score>
0.61

> <Score>
0.6107553

> <Source Database>
conformers.ldb

> <Active/Decoy>
unknown

> <Mol. Index>
318

$$$$
314
XX    ILIB11282304123D

 50 50  0  0  1  0              1 V2000
   38.3375  -48.3241   64.8469 C   0  0  0  0  0
   38.9113  -48.1912   66.2322 C   0  0  0  0  0
   40.1540  -48.9840   66.5690 C   0  0  0  0  0
   39.6854  -50.2709   66.8886 O   0  0  0  0  0
   40.5964  -51.3026   66.5762 C   0  0  0  0  0
   40.1401  -52.2597   66.8431 H   0  0  0  0  0
   40.8183  -51.3078   65.5051 H   0  0  0  0  0
   41.5192  -51.1835   67.1520 H   0  0  0  0  0
   40.9807  -48.3833   67.7019 C   0  0  0  0  0
   41.6646  -47.0517   67.4487 C   0  0  0  0  0
   42.9028  -47.2214   66.5678 C   0  0  0  0  0
   43.7754  -45.9609   66.4839 C   0  0  0  0  0
   44.1807  -45.5204   67.7681 O   0  0  0  0  0
   45.4411  -44.8617   67.7433 C   0  0  0  0  0
   46.2190  -45.5423   67.3876 H   0  0  0  0  0
   45.6866  -44.5522   68.7620 H   0  0  0  0  0
   45.3996  -43.9726   67.1084 H   0  0  0  0  0
   43.0190  -44.8020   65.8341 C   0  0  0  0  0
   42.9218  -44.8199   64.3099 C   0  0  0  0  0
   44.1269  -44.2192   63.8663 O   0  0  0  0  0
   44.5490  -44.7189   62.6040 C   0  0  0  0  0
   44.7422  -45.7937   62.6646 H   0  0  0  0  0
   45.4783  -44.2127   62.3281 H   0  0  0  0  0
   43.7977  -44.5132   61.8352 H   0  0  0  0  0
   41.7344  -44.0052   63.8648 C   0  0  0  0  0
   40.6104  -44.4591   63.2726 C   0  0  0  0  0
   40.5068  -45.9129   62.9762 C   0  0  0  0  0
   39.5701  -46.5399   63.7890 N   0  0  0  0  0
   39.2908  -47.9037   63.7534 C   0  0  0  0  0
   39.7380  -48.7082   62.9398 O   0  0  0  0  0
   39.0856  -45.9752   64.4831 H   0  0  0  0  0
   41.1880  -46.4350   62.1012 O   0  0  0  0  0
   39.5099  -43.7243   62.9113 O   0  0  0  0  0
   39.5925  -42.3346   63.2079 C   0  0  0  0  0
   39.6733  -42.1682   64.2872 H   0  0  0  0  0
   40.4278  -41.8680   62.6758 H   0  0  0  0  0
   38.6681  -41.8626   62.8623 H   0  0  0  0  0
   41.8221  -42.9421   64.0785 H   0  0  0  0  0
   42.8767  -45.8620   63.9832 H   0  0  0  0  0
   42.5508  -43.8863   66.5120 O   0  0  0  0  0
   44.6687  -46.1492   65.8749 H   0  0  0  0  0
   42.5964  -47.5301   65.5624 H   0  0  0  0  0
   43.5049  -48.0462   66.9710 H   0  0  0  0  0
   40.9458  -46.3626   66.9938 H   0  0  0  0  0
   41.9320  -46.6314   68.4249 H   0  0  0  0  0
   41.1048  -48.9565   68.7847 O   0  0  0  0  0
   40.7993  -49.0330   65.6703 H   0  0  0  0  0
   38.3479  -47.4926   67.0878 O   0  0  0  0  0
   37.4291  -47.7162   64.7745 H   0  0  0  0  0
   38.0445  -49.3676   64.6921 H   0  0  0  0  0
  1  2  1  0  0  0
  1 29  1  0  0  0
  1 49  1  0  0  0
  1 50  1  0  0  0
  2  3  1  0  0  0
  2 48  2  0  0  0
  3  4  1  0  0  0
  3  9  1  0  0  0
  3 47  1  0  0  0
  4  5  1  0  0  0
  5  6  1  0  0  0
  5  7  1  0  0  0
  5  8  1  0  0  0
  9 10  1  0  0  0
  9 46  2  0  0  0
 10 11  1  0  0  0
 10 44  1  0  0  0
 10 45  1  0  0  0
 11 12  1  0  0  0
 11 42  1  0  0  0
 11 43  1  0  0  0
 12 13  1  0  0  0
 12 18  1  0  0  0
 12 41  1  0  0  0
 13 14  1  0  0  0
 14 15  1  0  0  0
 14 16  1  0  0  0
 14 17  1  0  0  0
 18 19  1  0  0  0
 18 40  2  0  0  0
 19 20  1  0  0  0
 19 25  1  0  0  0
 19 39  1  0  0  0
 20 21  1  0  0  0
 21 22  1  0  0  0
 21 23  1  0  0  0
 21 24  1  0  0  0
 25 26  2  0  0  0
 25 38  1  0  0  0
 26 27  1  0  0  0
 26 33  1  0  0  0
 27 28  1  0  0  0
 27 32  2  0  0  0
 28 29  1  0  0  0
 28 31  1  0  0  0
 29 30  2  0  0  0
 33 34  1  0  0  0
 34 35  1  0  0  0
 34 36  1  0  0  0
 34 37  1  0  0  0
M  END
> <# Confs.>
25

> <Pharmacophore Match>
(1YET) [A] GDM275

> <Matching Features>
||||HBA:495067246627921590|HBA:495067385280122077|HBA:495067408768422079|HBA:495067414144822081

> <Relative Pharmacophore-Fit Score>
0.50

> <Score>
0.49514526

> <Source Database>
conformers.ldb

> <Active/Decoy>
unknown

> <Mol. Index>
309

$$$$
